
**** 05/21/21 03:52:29 ****** PSpice 17.2.0 (March 2016) ****** ID# 0 ********

 ** Profile: "SCHEMATIC1-vdc"  [ E:\An2_Sem2\Tehnici_CAD\Proiect\main-pspicefiles\schematic1\vdc.sim ] 


 ****     CIRCUIT DESCRIPTION


******************************************************************************




** Creating circuit file "vdc.cir" 
** WARNING: THIS AUTOMATICALLY GENERATED FILE MAY BE OVERWRITTEN BY SUBSEQUENT SIMULATIONS

*Libraries: 
* Profile Libraries :
* Local Libraries :
.LIB "../../../dimesionare_led.lib" 
.LIB "../../../main-pspicefiles/main.lib" 
* From [PSPICE NETLIST] section of C:\SPB_Data\cdssetup\OrCAD_PSpice\17.2.0\PSpice.ini file:
.lib "nom.lib" 

*Analysis directives: 
.DC LIN PARAM SET 0 1 0.05 
.WCASE DC v([OUT]) YMAX VARY BOTH  HI 
.OPTIONS ADVCONV
.PROBE64 V(alias(*)) I(alias(*)) W(alias(*)) D(alias(*)) NOISE(alias(*)) 
.INC "..\SCHEMATIC1.net" 



**** INCLUDING SCHEMATIC1.net ****
* source MAIN
X_U5         OUT 0 VCC 0 N16519 uA741
V_V2         -VCC 0 -16
X_U4         OUT N09834 VCC -VCC N09900 uA741
V_V1         VCC 0 16
X_U3         OUT N09690 VCC -VCC N09756 uA741
X_U2         OUT N13610 VCC -VCC N09568 uA741
X_U1         OUT N09294 VCC -VCC N09472 uA741
R_R2         N09568 N19094 R_R2 1.5k TC=0,0 
.model        R_R2 RES R=1 DEV=1% TC1=0 TC2=0
R_R4         N09900 N17329 R_R4 1.47k TC=0,0 
.model        R_R4 RES R=1 DEV=1% TC1=0 TC2=0
R_R5         N09756 N09654 R_R5 1.47k TC=0,0 
.model        R_R5 RES R=1 DEV=1% TC1=0 TC2=0
R_R6         OUT VCC R_R6 4.99k TC=0,0 
.model        R_R6 RES R=1 DEV=1% TC1=0 TC2=0
X_R7         0 OUT OUT POT PARAMS: SET={SET} VALUE=20k
R_R8         0 N09294 R_R8 2.61k TC=0,0 
.model        R_R8 RES R=1 DEV=1% TC1=0 TC2=0
R_R9         N09294 VCC R_R9 1k TC=0,0 
.model        R_R9 RES R=1 DEV=1% TC1=0 TC2=0
R_R11         0 N13610 R_R11 2.15k TC=0,0 
.model        R_R11 RES R=1 DEV=1% TC1=0 TC2=0
R_R13         0 N09690 R_R13 1.78k TC=0,0 
.model        R_R13 RES R=1 DEV=1% TC1=0 TC2=0
R_R15         0 N09834 R_R15 604 TC=0,0 
.model        R_R15 RES R=1 DEV=1% TC1=0 TC2=0
R_R16         N09472 N17714 R_R16 698 TC=0,0 
.model        R_R16 RES R=1 DEV=1% TC1=0 TC2=0
R_R17         N16519 N18668 R_R17 1.4k TC=0,0 
.model        R_R17 RES R=1 DEV=1% TC1=0 TC2=0
R_R10         VCC N13610 R_R10 1k TC=0,0 
.model        R_R10 RES R=1 DEV=1% TC1=0 TC2=0
R_R12         VCC N09690 R_R12 1k TC=0,0 
.model        R_R12 RES R=1 DEV=1% TC1=0 TC2=0
R_R14         VCC N09834 R_R14 1k TC=0,0 
.model        R_R14 RES R=1 DEV=1% TC1=0 TC2=0
D_D15         N09654 N09568 LED_GALBEN 
D_D17         N17714 0 LED_ROSU 
D_D18         N18668 N09900 LED_ALBASTRU 
D_D14         N17329 N09756 LED_VERDE 
D_D16         N19094 N09472 LED_PORTOCALIU 
.PARAM  set=1

**** RESUMING vdc.cir ****
.END

**** 05/21/21 03:52:29 ****** PSpice 17.2.0 (March 2016) ****** ID# 0 ********

 ** Profile: "SCHEMATIC1-vdc"  [ E:\An2_Sem2\Tehnici_CAD\Proiect\main-pspicefiles\schematic1\vdc.sim ] 


 ****     Diode MODEL PARAMETERS


******************************************************************************




               LED_GALBEN      LED_ROSU        LED_ALBASTRU    LED_VERDE       
          IS    3.261600E-06  410.580000E-12  120.050000E-18  943.610000E-12 
           N    4.995           3.6144          4.3893          3.4471       
          RS    4.4854          9.4285         14.259           8.0431       


               LED_PORTOCALIU  X_U5.dx         X_U5.dy         X_U4.dx         
          IS    2.746300E-12  800.000000E-18  800.000000E-18  800.000000E-18 
           N    2.6136                                                       
          RS    6.312000E-06    1               1.000000E-03    1            
         CJO                                   10.000000E-12                 


               X_U4.dy         X_U3.dx         X_U3.dy         X_U2.dx         
          IS  800.000000E-18  800.000000E-18  800.000000E-18  800.000000E-18 
          RS    1.000000E-03    1               1.000000E-03    1            
         CJO   10.000000E-12                   10.000000E-12                 


               X_U2.dy         X_U1.dx         X_U1.dy         
          IS  800.000000E-18  800.000000E-18  800.000000E-18 
          RS    1.000000E-03    1               1.000000E-03 
         CJO   10.000000E-12                   10.000000E-12 


**** 05/21/21 03:52:29 ****** PSpice 17.2.0 (March 2016) ****** ID# 0 ********

 ** Profile: "SCHEMATIC1-vdc"  [ E:\An2_Sem2\Tehnici_CAD\Proiect\main-pspicefiles\schematic1\vdc.sim ] 


 ****     BJT MODEL PARAMETERS


******************************************************************************




               X_U5.qx         X_U4.qx         X_U3.qx         X_U2.qx         
               NPN             NPN             NPN             NPN             
       LEVEL    1               1               1               1            
          IS  800.000000E-18  800.000000E-18  800.000000E-18  800.000000E-18 
          BF   93.75           93.75           93.75           93.75         
          NF    1               1               1               1            
          BR    1               1               1               1            
          NR    1               1               1               1            
         ISS    0               0               0               0            
          RE    0               0               0               0            
          RC    0               0               0               0            
         CJE    0               0               0               0            
         VJE     .75             .75             .75             .75         
         CJC    0               0               0               0            
         VJC     .75             .75             .75             .75         
         MJC     .33             .33             .33             .33         
        XCJC    1               1               1               1            
         CJS    0               0               0               0            
         VJS     .75             .75             .75             .75         
          KF    0               0               0               0            
          AF    1               1               1               1            
          CN    2.42            2.42            2.42            2.42         
           D     .87             .87             .87             .87         


               X_U1.qx         
               NPN             
       LEVEL    1            
          IS  800.000000E-18 
          BF   93.75         
          NF    1            
          BR    1            
          NR    1            
         ISS    0            
          RE    0            
          RC    0            
         CJE    0            
         VJE     .75         
         CJC    0            
         VJC     .75         
         MJC     .33         
        XCJC    1            
         CJS    0            
         VJS     .75         
          KF    0            
          AF    1            
          CN    2.42         
           D     .87         


**** 05/21/21 03:52:29 ****** PSpice 17.2.0 (March 2016) ****** ID# 0 ********

 ** Profile: "SCHEMATIC1-vdc"  [ E:\An2_Sem2\Tehnici_CAD\Proiect\main-pspicefiles\schematic1\vdc.sim ] 


 ****     Resistor MODEL PARAMETERS


******************************************************************************




               R_R2            R_R4            R_R5            R_R6            
           R    1               1               1               1            


               R_R8            R_R9            R_R11           R_R13           
           R    1               1               1               1            


               R_R15           R_R16           R_R17           R_R10           
           R    1               1               1               1            


               R_R12           R_R14           
           R    1               1            



Mean Deviation = -444.1500E-06
Sigma          =    1.2568E-03

 RUN                    MAX DEVIATION FROM NOMINAL

R_R6 R_R6 R            3.9988E-03  (3.18 sigma)  lower  at SET =     .75  
                        (   -.4994% change per 1% change in Model Parameter)

R_R8 R_R8 R           12.3980E-06  ( .01 sigma)  higher  at SET =     .35  
                        (   1.0725E-03% change per 1% change in Model Parameter)

R_R9 R_R9 R           11.4440E-06  ( .01 sigma)  lower  at SET =     .35  
                        (-990.0300E-06% change per 1% change in Model Parameter)

R_R13 R_R13 R          9.5367E-06  ( .01 sigma)  higher  at SET =     .55  
                        ( 926.6500E-06% change per 1% change in Model Parameter)

R_R12 R_R12 R          9.5367E-06  ( .01 sigma)  lower  at SET =     .55  
                        (-926.6500E-06% change per 1% change in Model Parameter)

R_R14 R_R14 R          7.1526E-06  ( .01 sigma)  lower  at SET =     .85  
                        (  -1.1907E-03% change per 1% change in Model Parameter)

R_R15 R_R15 R          6.6757E-06  ( .01 sigma)  higher  at SET =     .85  
                        (   1.1113E-03% change per 1% change in Model Parameter)

R_R11 R_R11 R          5.7220E-06  ( .00 sigma)  higher  at SET =     .45  
                        ( 519.9700E-06% change per 1% change in Model Parameter)

R_R10 R_R10 R          4.7684E-06  ( .00 sigma)  lower  at SET =     .45  
                        (-433.3100E-06% change per 1% change in Model Parameter)

R_R2 R_R2 R             0       (0.00 sigma)  unchanged  at SET =    0     
                        (   0     % change per 1% change in Model Parameter)

R_R4 R_R4 R             0       (0.00 sigma)  unchanged  at SET =    0     
                        (   0     % change per 1% change in Model Parameter)

R_R5 R_R5 R             0       (0.00 sigma)  unchanged  at SET =    0     
                        (   0     % change per 1% change in Model Parameter)

R_R16 R_R16 R           0       (0.00 sigma)  unchanged  at SET =    0     
                        (   0     % change per 1% change in Model Parameter)

R_R17 R_R17 R           0       (0.00 sigma)  unchanged  at SET =    0     
                        (   0     % change per 1% change in Model Parameter)


**** 05/21/21 03:52:29 ****** PSpice 17.2.0 (March 2016) ****** ID# 0 ********

 ** Profile: "SCHEMATIC1-vdc"  [ E:\An2_Sem2\Tehnici_CAD\Proiect\main-pspicefiles\schematic1\vdc.sim ] 


 ****     UPDATED MODEL PARAMETERS         TEMPERATURE =   27.000 DEG C

                      WORST CASE ALL DEVICES

******************************************************************************



Device       MODEL        PARAMETER    NEW VALUE    
R_R2         R_R2         R               1             (Unchanged)  
R_R4         R_R4         R               1             (Unchanged)  
R_R5         R_R5         R               1             (Unchanged)  
R_R6         R_R6         R                .99          (Decreased)  
R_R8         R_R8         R               1.01          (Increased)  
R_R9         R_R9         R                .99          (Decreased)  
R_R11        R_R11        R               1.01          (Increased)  
R_R13        R_R13        R               1.01          (Increased)  
R_R15        R_R15        R               1.01          (Increased)  
R_R16        R_R16        R               1             (Unchanged)  
R_R17        R_R17        R               1             (Unchanged)  
R_R10        R_R10        R                .99          (Decreased)  
R_R12        R_R12        R                .99          (Decreased)  
R_R14        R_R14        R                .99          (Decreased)  
    

**** 05/21/21 03:52:29 ****** PSpice 17.2.0 (March 2016) ****** ID# 0 ********

 ** Profile: "SCHEMATIC1-vdc"  [ E:\An2_Sem2\Tehnici_CAD\Proiect\main-pspicefiles\schematic1\vdc.sim ] 


 ****     SORTED DEVIATIONS OF V(OUT)      TEMPERATURE =   27.000 DEG C

                      WORST CASE SUMMARY

******************************************************************************





Mean Deviation =     .0402
Sigma          =    0     

 RUN                    MAX DEVIATION FROM NOMINAL

WORST CASE ALL DEVICES
                         .0402  higher  at SET =     .75  
                        ( 100.5 % of Nominal)



          JOB CONCLUDED

**** 05/21/21 03:52:29 ****** PSpice 17.2.0 (March 2016) ****** ID# 0 ********

 ** Profile: "SCHEMATIC1-vdc"  [ E:\An2_Sem2\Tehnici_CAD\Proiect\main-pspicefiles\schematic1\vdc.sim ] 


 ****     JOB STATISTICS SUMMARY


******************************************************************************



  Total job time (using Solver 1)   =         .41
