
**** 05/21/21 03:16:09 ****** PSpice 17.2.0 (March 2016) ****** ID# 0 ********

 ** Profile: "SCHEMATIC1-vac"  [ E:\An2_Sem2\Tehnici_CAD\Proiect\main-pspicefiles\schematic1\vac.sim ] 


 ****     CIRCUIT DESCRIPTION


******************************************************************************




** Creating circuit file "vac.cir" 
** WARNING: THIS AUTOMATICALLY GENERATED FILE MAY BE OVERWRITTEN BY SUBSEQUENT SIMULATIONS

*Libraries: 
* Profile Libraries :
* Local Libraries :
.LIB "../../../dimesionare_led.lib" 
.LIB "../../../main-pspicefiles/main.lib" 
* From [PSPICE NETLIST] section of C:\SPB_Data\cdssetup\OrCAD_PSpice\17.2.0\PSpice.ini file:
.lib "nom.lib" 

*Analysis directives: 
.TRAN  0 100ms 0 
.MC 10 TRAN v([OUT]) YMAX OUTPUT RUNS  SEED=200 
.OPTIONS ADVCONV
.PROBE64 V(alias(*)) I(alias(*)) W(alias(*)) D(alias(*)) NOISE(alias(*)) 
.INC "..\SCHEMATIC1.net" 



**** INCLUDING SCHEMATIC1.net ****
* source MAIN
X_U5         OUT 0 VCC 0 N16519 uA741
V_V2         -VCC 0 -16
X_U4         OUT N09834 VCC -VCC N09900 uA741
V_V1         VCC 0 16
X_U3         OUT N09690 VCC -VCC N09756 uA741
X_U2         OUT N13610 VCC -VCC N09568 uA741
X_U1         OUT N09294 VCC -VCC N09472 uA741
R_R2         N09568 N19094 R_R2 1.5k TC=0,0 
.model        R_R2 RES R=1 DEV=1% TC1=0 TC2=0
R_R4         N09900 N17329 R_R4 1.47k TC=0,0 
.model        R_R4 RES R=1 DEV=1% TC1=0 TC2=0
R_R5         N09756 N09654 R_R5 1.47k TC=0,0 
.model        R_R5 RES R=1 DEV=1% TC1=0 TC2=0
R_R6         OUT VCC R_R6 4.99k TC=0,0 
.model        R_R6 RES R=1 DEV=1% TC1=0 TC2=0
X_R7         0 OUT OUT POT PARAMS: SET={SET} VALUE=20k
R_R8         0 N09294 R_R8 2.61k TC=0,0 
.model        R_R8 RES R=1 DEV=1% TC1=0 TC2=0
R_R9         N09294 VCC R_R9 1k TC=0,0 
.model        R_R9 RES R=1 DEV=1% TC1=0 TC2=0
R_R11         0 N13610 R_R11 2.15k TC=0,0 
.model        R_R11 RES R=1 DEV=1% TC1=0 TC2=0
R_R13         0 N09690 R_R13 1.78k TC=0,0 
.model        R_R13 RES R=1 DEV=1% TC1=0 TC2=0
R_R15         0 N09834 R_R15 604 TC=0,0 
.model        R_R15 RES R=1 DEV=1% TC1=0 TC2=0
R_R16         N09472 N17714 R_R16 698 TC=0,0 
.model        R_R16 RES R=1 DEV=1% TC1=0 TC2=0
R_R17         N16519 N18668 R_R17 1.4k TC=0,0 
.model        R_R17 RES R=1 DEV=1% TC1=0 TC2=0
R_R10         VCC N13610 R_R10 1k TC=0,0 
.model        R_R10 RES R=1 DEV=1% TC1=0 TC2=0
R_R12         VCC N09690 R_R12 1k TC=0,0 
.model        R_R12 RES R=1 DEV=1% TC1=0 TC2=0
R_R14         VCC N09834 R_R14 1k TC=0,0 
.model        R_R14 RES R=1 DEV=1% TC1=0 TC2=0
D_D15         N09654 N09568 LED_GALBEN 
D_D17         N17714 0 LED_ROSU 
D_D18         N18668 N09900 LED_ALBASTRU 
D_D14         N17329 N09756 LED_VERDE 
D_D16         N19094 N09472 LED_PORTOCALIU 
.PARAM  set=1

**** RESUMING vac.cir ****
.END

**** 05/21/21 03:16:09 ****** PSpice 17.2.0 (March 2016) ****** ID# 0 ********

 ** Profile: "SCHEMATIC1-vac"  [ E:\An2_Sem2\Tehnici_CAD\Proiect\main-pspicefiles\schematic1\vac.sim ] 


 ****     Diode MODEL PARAMETERS


******************************************************************************




               LED_GALBEN      LED_ROSU        LED_ALBASTRU    LED_VERDE       
          IS    3.261600E-06  410.580000E-12  120.050000E-18  943.610000E-12 
           N    4.995           3.6144          4.3893          3.4471       
          RS    4.4854          9.4285         14.259           8.0431       


               LED_PORTOCALIU  X_U5.dx         X_U5.dy         X_U4.dx         
          IS    2.746300E-12  800.000000E-18  800.000000E-18  800.000000E-18 
           N    2.6136                                                       
          RS    6.312000E-06    1               1.000000E-03    1            
         CJO                                   10.000000E-12                 


               X_U4.dy         X_U3.dx         X_U3.dy         X_U2.dx         
          IS  800.000000E-18  800.000000E-18  800.000000E-18  800.000000E-18 
          RS    1.000000E-03    1               1.000000E-03    1            
         CJO   10.000000E-12                   10.000000E-12                 


               X_U2.dy         X_U1.dx         X_U1.dy         
          IS  800.000000E-18  800.000000E-18  800.000000E-18 
          RS    1.000000E-03    1               1.000000E-03 
         CJO   10.000000E-12                   10.000000E-12 


**** 05/21/21 03:16:09 ****** PSpice 17.2.0 (March 2016) ****** ID# 0 ********

 ** Profile: "SCHEMATIC1-vac"  [ E:\An2_Sem2\Tehnici_CAD\Proiect\main-pspicefiles\schematic1\vac.sim ] 


 ****     BJT MODEL PARAMETERS


******************************************************************************




               X_U5.qx         X_U4.qx         X_U3.qx         X_U2.qx         
               NPN             NPN             NPN             NPN             
       LEVEL    1               1               1               1            
          IS  800.000000E-18  800.000000E-18  800.000000E-18  800.000000E-18 
          BF   93.75           93.75           93.75           93.75         
          NF    1               1               1               1            
          BR    1               1               1               1            
          NR    1               1               1               1            
         ISS    0               0               0               0            
          RE    0               0               0               0            
          RC    0               0               0               0            
         CJE    0               0               0               0            
         VJE     .75             .75             .75             .75         
         CJC    0               0               0               0            
         VJC     .75             .75             .75             .75         
         MJC     .33             .33             .33             .33         
        XCJC    1               1               1               1            
         CJS    0               0               0               0            
         VJS     .75             .75             .75             .75         
          KF    0               0               0               0            
          AF    1               1               1               1            
          CN    2.42            2.42            2.42            2.42         
           D     .87             .87             .87             .87         


               X_U1.qx         
               NPN             
       LEVEL    1            
          IS  800.000000E-18 
          BF   93.75         
          NF    1            
          BR    1            
          NR    1            
         ISS    0            
          RE    0            
          RC    0            
         CJE    0            
         VJE     .75         
         CJC    0            
         VJC     .75         
         MJC     .33         
        XCJC    1            
         CJS    0            
         VJS     .75         
          KF    0            
          AF    1            
          CN    2.42         
           D     .87         


**** 05/21/21 03:16:09 ****** PSpice 17.2.0 (March 2016) ****** ID# 0 ********

 ** Profile: "SCHEMATIC1-vac"  [ E:\An2_Sem2\Tehnici_CAD\Proiect\main-pspicefiles\schematic1\vac.sim ] 


 ****     Resistor MODEL PARAMETERS


******************************************************************************




               R_R2            R_R4            R_R5            R_R6            
           R    1               1               1               1            


               R_R8            R_R9            R_R11           R_R13           
           R    1               1               1               1            


               R_R15           R_R16           R_R17           R_R10           
           R    1               1               1               1            


               R_R12           R_R14           
           R    1               1            


**** 05/21/21 03:16:09 ****** PSpice 17.2.0 (March 2016) ****** ID# 0 ********

 ** Profile: "SCHEMATIC1-vac"  [ E:\An2_Sem2\Tehnici_CAD\Proiect\main-pspicefiles\schematic1\vac.sim ] 


 ****     INITIAL TRANSIENT SOLUTION       TEMPERATURE =   27.000 DEG C

                      MONTE CARLO NOMINAL

******************************************************************************



 NODE   VOLTAGE     NODE   VOLTAGE     NODE   VOLTAGE     NODE   VOLTAGE


(  OUT) 3.206E-06  (  VCC)   16.0000  ( -VCC)  -16.0000  (N09294)   11.5680     

(N09472)  -15.8160 (N09568)  -15.8160 (N09654)  -15.8160 (N09690)   10.2450     

(N09756)  -15.8160 (N09834)    6.0249 (N09900)  -15.7990 (N13610)   10.9210     

(N16519)   15.6990 (N17329)  -15.7990 (N17714)  -15.8160 (N18668)  -11.8030     

(N19094)  -15.8160 (X_U1.6)    1.5885 (X_U1.7)  -17.8470 (X_U1.8)  -17.8470     

(X_U1.9)    0.0000 (X_U2.6)    1.5832 (X_U2.7)  -17.8470 (X_U2.8)  -17.8470     

(X_U2.9)    0.0000 (X_U3.6)    1.5777 (X_U3.7)  -17.8470 (X_U3.8)  -17.8470     

(X_U3.9)    0.0000 (X_U4.6)    1.5436 (X_U4.7)  -17.8300 (X_U4.8)  -17.8300     

(X_U4.9)    0.0000 (X_U5.6)    -.0052 (X_U5.7)   16.7040 (X_U5.8)   16.7040     

(X_U5.9)    0.0000 (X_U1.10)   10.9250                   (X_U1.11)   15.9160    

(X_U1.12)   16.0000                   (X_U1.13)   10.9550                       

(X_U1.14)   10.9250                   (X_U1.53)   15.0000                       

(X_U1.54)  -15.0000                   (X_U1.90)  -40.6080                       

(X_U1.91)   40.0000                   (X_U1.92)  -40.0000                       

(X_U1.99)    0.0000                   (X_U2.10)   10.2780                       

(X_U2.11)   15.9160                   (X_U2.12)   16.0000                       

(X_U2.13)   10.3070                   (X_U2.14)   10.2780                       

(X_U2.53)   15.0000                   (X_U2.54)  -15.0000                       

(X_U2.90)  -40.6080                   (X_U2.91)   40.0000                       

(X_U2.92)  -40.0000                   (X_U2.99)    0.0000                       

(X_U3.10)    9.6023                   (X_U3.11)   15.9170                       

(X_U3.12)   16.0000                   (X_U3.13)    9.6315                       

(X_U3.14)    9.6023                   (X_U3.53)   15.0000                       

(X_U3.54)  -15.0000                   (X_U3.90)  -40.6070                       

(X_U3.91)   40.0000                   (X_U3.92)  -40.0000                       

(X_U3.99)    0.0000                   (X_U4.10)    5.3838                       

(X_U4.11)   15.9180                   (X_U4.12)   16.0000                       

(X_U4.13)    5.4124                   (X_U4.14)    5.3838                       

(X_U4.53)   15.0000                   (X_U4.54)  -15.0000                       

(X_U4.90)  -40.6110                   (X_U4.91)   40.0000                       

(X_U4.92)  -40.0000                   (X_U4.99)    0.0000                       

(X_U5.10)    -.6061                   (X_U5.11)   15.9620                       

(X_U5.12)   15.9620                   (X_U5.13)    -.5927                       

(X_U5.14)    -.5927                   (X_U5.53)   15.0000                       

(X_U5.54)    1.0000                   (X_U5.90)   20.0880                       

(X_U5.91)   40.0000                   (X_U5.92)  -40.0000                       

(X_U5.99)    8.0000                   




    VOLTAGE SOURCE CURRENTS
    NAME         CURRENT

    V_V2        -1.357E-01
    V_V1        -3.601E-02
    X_U5.vb     -5.189E-08
    X_U5.vc     -4.430E-04
    X_U5.ve      1.456E-11
    X_U5.vlim    2.009E-02
    X_U5.vlp    -1.991E-11
    X_U5.vln    -6.009E-11
    X_U4.vb      1.544E-05
    X_U4.vc      3.080E-11
    X_U4.ve     -2.097E-02
    X_U4.vlim   -4.061E-02
    X_U4.vlp    -8.061E-11
    X_U4.vln     1.426E-05
    X_U3.vb      1.578E-05
    X_U3.vc      3.082E-11
    X_U3.ve     -4.061E-02
    X_U3.vlim   -4.061E-02
    X_U3.vlp    -8.061E-11
    X_U3.vln     1.266E-05
    X_U2.vb      1.583E-05
    X_U2.vc      3.082E-11
    X_U2.ve     -4.061E-02
    X_U2.vlim   -4.061E-02
    X_U2.vlp    -8.061E-11
    X_U2.vln     1.272E-05
    X_U1.vb      1.588E-05
    X_U1.vc      3.082E-11
    X_U1.ve     -4.061E-02
    X_U1.vlim   -4.061E-02
    X_U1.vlp    -8.061E-11
    X_U1.vln     1.277E-05

    TOTAL POWER DISSIPATION  -1.45E+00  WATTS

 NODE   VOLTAGE     NODE   VOLTAGE     NODE   VOLTAGE     NODE   VOLTAGE


(  OUT) 3.177E-06  (  VCC)   16.0000  ( -VCC)  -16.0000  (N09294)   11.5510     

(N09472)  -15.8160 (N09568)  -15.8160 (N09654)  -15.8160 (N09690)   10.2370     

(N09756)  -15.8160 (N09834)    6.0364 (N09900)  -15.7990 (N13610)   10.9220     

(N16519)   15.6990 (N17329)  -15.7990 (N17714)  -15.8160 (N18668)  -11.8040     

(N19094)  -15.8160 (X_U1.6)    1.5883 (X_U1.7)  -17.8470 (X_U1.8)  -17.8470     

(X_U1.9)    0.0000 (X_U2.6)    1.5832 (X_U2.7)  -17.8470 (X_U2.8)  -17.8470     

(X_U2.9)    0.0000 (X_U3.6)    1.5777 (X_U3.7)  -17.8470 (X_U3.8)  -17.8470     

(X_U3.9)    0.0000 (X_U4.6)    1.5437 (X_U4.7)  -17.8300 (X_U4.8)  -17.8300     

(X_U4.9)    0.0000 (X_U5.6)    -.0052 (X_U5.7)   16.7020 (X_U5.8)   16.7020     

(X_U5.9)    0.0000 (X_U1.10)   10.9090                   (X_U1.11)   15.9160    

(X_U1.12)   16.0000                   (X_U1.13)   10.9380                       

(X_U1.14)   10.9090                   (X_U1.53)   15.0000                       

(X_U1.54)  -15.0000                   (X_U1.90)  -40.6080                       

(X_U1.91)   40.0000                   (X_U1.92)  -40.0000                       

(X_U1.99)    0.0000                   (X_U2.10)   10.2800                       

(X_U2.11)   15.9160                   (X_U2.12)   16.0000                       

(X_U2.13)   10.3090                   (X_U2.14)   10.2800                       

(X_U2.53)   15.0000                   (X_U2.54)  -15.0000                       

(X_U2.90)  -40.6080                   (X_U2.91)   40.0000                       

(X_U2.92)  -40.0000                   (X_U2.99)    0.0000                       

(X_U3.10)    9.5948                   (X_U3.11)   15.9170                       

(X_U3.12)   16.0000                   (X_U3.13)    9.6240                       

(X_U3.14)    9.5948                   (X_U3.53)   15.0000                       

(X_U3.54)  -15.0000                   (X_U3.90)  -40.6070                       

(X_U3.91)   40.0000                   (X_U3.92)  -40.0000                       

(X_U3.99)    0.0000                   (X_U4.10)    5.3953                       

(X_U4.11)   15.9180                   (X_U4.12)   16.0000                       

(X_U4.13)    5.4239                   (X_U4.14)    5.3953                       

(X_U4.53)   15.0000                   (X_U4.54)  -15.0000                       

(X_U4.90)  -40.6110                   (X_U4.91)   40.0000                       

(X_U4.92)  -40.0000                   (X_U4.99)    0.0000                       

(X_U5.10)    -.6061                   (X_U5.11)   15.9620                       

(X_U5.12)   15.9620                   (X_U5.13)    -.5927                       

(X_U5.14)    -.5927                   (X_U5.53)   15.0000                       

(X_U5.54)    1.0000                   (X_U5.90)   20.0570                       

(X_U5.91)   40.0000                   (X_U5.92)  -40.0000                       

(X_U5.99)    8.0000                   




    VOLTAGE SOURCE CURRENTS
    NAME         CURRENT

    V_V2        -1.357E-01
    V_V1        -3.601E-02
    X_U5.vb     -5.188E-08
    X_U5.vc     -4.430E-04
    X_U5.ve      1.456E-11
    X_U5.vlim    2.006E-02
    X_U5.vlp    -1.994E-11
    X_U5.vln    -6.006E-11
    X_U4.vb      1.544E-05
    X_U4.vc      3.080E-11
    X_U4.ve     -2.100E-02
    X_U4.vlim   -4.061E-02
    X_U4.vlp    -8.061E-11
    X_U4.vln     1.426E-05
    X_U3.vb      1.578E-05
    X_U3.vc      3.082E-11
    X_U3.ve     -4.061E-02
    X_U3.vlim   -4.061E-02
    X_U3.vlp    -8.061E-11
    X_U3.vln     1.266E-05
    X_U2.vb      1.583E-05
    X_U2.vc      3.082E-11
    X_U2.ve     -4.061E-02
    X_U2.vlim   -4.061E-02
    X_U2.vlp    -8.061E-11
    X_U2.vln     1.272E-05
    X_U1.vb      1.588E-05
    X_U1.vc      3.082E-11
    X_U1.ve     -4.061E-02
    X_U1.vlim   -4.061E-02
    X_U1.vlp    -8.061E-11
    X_U1.vln     1.277E-05

    TOTAL POWER DISSIPATION  -1.45E+00  WATTS

 NODE   VOLTAGE     NODE   VOLTAGE     NODE   VOLTAGE     NODE   VOLTAGE


(  OUT) 3.209E-06  (  VCC)   16.0000  ( -VCC)  -16.0000  (N09294)   11.5510     

(N09472)  -15.8160 (N09568)  -15.8160 (N09654)  -15.8160 (N09690)   10.2340     

(N09756)  -15.8160 (N09834)    5.9729 (N09900)  -15.7990 (N13610)   10.9000     

(N16519)   15.6990 (N17329)  -15.7990 (N17714)  -15.8160 (N18668)  -11.8070     

(N19094)  -15.8160 (X_U1.6)    1.5883 (X_U1.7)  -17.8470 (X_U1.8)  -17.8470     

(X_U1.9)    0.0000 (X_U2.6)    1.5831 (X_U2.7)  -17.8470 (X_U2.8)  -17.8470     

(X_U2.9)    0.0000 (X_U3.6)    1.5777 (X_U3.7)  -17.8470 (X_U3.8)  -17.8470     

(X_U3.9)    0.0000 (X_U4.6)    1.5432 (X_U4.7)  -17.8300 (X_U4.8)  -17.8300     

(X_U4.9)    0.0000 (X_U5.6)    -.0052 (X_U5.7)   16.6950 (X_U5.8)   16.6950     

(X_U5.9)    0.0000 (X_U1.10)   10.9080                   (X_U1.11)   15.9160    

(X_U1.12)   16.0000                   (X_U1.13)   10.9380                       

(X_U1.14)   10.9080                   (X_U1.53)   15.0000                       

(X_U1.54)  -15.0000                   (X_U1.90)  -40.6080                       

(X_U1.91)   40.0000                   (X_U1.92)  -40.0000                       

(X_U1.99)    0.0000                   (X_U2.10)   10.2580                       

(X_U2.11)   15.9160                   (X_U2.12)   16.0000                       

(X_U2.13)   10.2870                   (X_U2.14)   10.2580                       

(X_U2.53)   15.0000                   (X_U2.54)  -15.0000                       

(X_U2.90)  -40.6080                   (X_U2.91)   40.0000                       

(X_U2.92)  -40.0000                   (X_U2.99)    0.0000                       

(X_U3.10)    9.5920                   (X_U3.11)   15.9170                       

(X_U3.12)   16.0000                   (X_U3.13)    9.6211                       

(X_U3.14)    9.5920                   (X_U3.53)   15.0000                       

(X_U3.54)  -15.0000                   (X_U3.90)  -40.6070                       

(X_U3.91)   40.0000                   (X_U3.92)  -40.0000                       

(X_U3.99)    0.0000                   (X_U4.10)    5.3319                       

(X_U4.11)   15.9180                   (X_U4.12)   16.0000                       

(X_U4.13)    5.3604                   (X_U4.14)    5.3319                       

(X_U4.53)   15.0000                   (X_U4.54)  -15.0000                       

(X_U4.90)  -40.6100                   (X_U4.91)   40.0000                       

(X_U4.92)  -40.0000                   (X_U4.99)    0.0000                       

(X_U5.10)    -.6061                   (X_U5.11)   15.9620                       

(X_U5.12)   15.9620                   (X_U5.13)    -.5927                       

(X_U5.14)    -.5927                   (X_U5.53)   15.0000                       

(X_U5.54)    1.0000                   (X_U5.90)   19.9150                       

(X_U5.91)   40.0000                   (X_U5.92)  -40.0000                       

(X_U5.99)    8.0000                   




    VOLTAGE SOURCE CURRENTS
    NAME         CURRENT

    V_V2        -1.359E-01
    V_V1        -3.600E-02
    X_U5.vb     -5.189E-08
    X_U5.vc     -4.433E-04
    X_U5.ve      1.456E-11
    X_U5.vlim    1.992E-02
    X_U5.vlp    -2.009E-11
    X_U5.vln    -5.992E-11
    X_U4.vb      1.543E-05
    X_U4.vc      3.080E-11
    X_U4.ve     -2.114E-02
    X_U4.vlim   -4.061E-02
    X_U4.vlp    -8.061E-11
    X_U4.vln     1.424E-05
    X_U3.vb      1.578E-05
    X_U3.vc      3.082E-11
    X_U3.ve     -4.061E-02
    X_U3.vlim   -4.061E-02
    X_U3.vlp    -8.061E-11
    X_U3.vln     1.266E-05
    X_U2.vb      1.583E-05
    X_U2.vc      3.082E-11
    X_U2.ve     -4.061E-02
    X_U2.vlim   -4.061E-02
    X_U2.vlp    -8.061E-11
    X_U2.vln     1.271E-05
    X_U1.vb      1.588E-05
    X_U1.vc      3.082E-11
    X_U1.ve     -4.061E-02
    X_U1.vlim   -4.061E-02
    X_U1.vlp    -8.061E-11
    X_U1.vln     1.277E-05

    TOTAL POWER DISSIPATION  -1.46E+00  WATTS

 NODE   VOLTAGE     NODE   VOLTAGE     NODE   VOLTAGE     NODE   VOLTAGE


(  OUT) 3.176E-06  (  VCC)   16.0000  ( -VCC)  -16.0000  (N09294)   11.5900     

(N09472)  -15.8160 (N09568)  -15.8160 (N09654)  -15.8160 (N09690)   10.2400     

(N09756)  -15.8160 (N09834)    6.0287 (N09900)  -15.7990 (N13610)   10.9500     

(N16519)   15.6990 (N17329)  -15.7990 (N17714)  -15.8160 (N18668)  -11.8050     

(N19094)  -15.8160 (X_U1.6)    1.5886 (X_U1.7)  -17.8470 (X_U1.8)  -17.8470     

(X_U1.9)    0.0000 (X_U2.6)    1.5835 (X_U2.7)  -17.8470 (X_U2.8)  -17.8470     

(X_U2.9)    0.0000 (X_U3.6)    1.5777 (X_U3.7)  -17.8470 (X_U3.8)  -17.8470     

(X_U3.9)    0.0000 (X_U4.6)    1.5436 (X_U4.7)  -17.8300 (X_U4.8)  -17.8300     

(X_U4.9)    0.0000 (X_U5.6)    -.0052 (X_U5.7)   16.7010 (X_U5.8)   16.7010     

(X_U5.9)    0.0000 (X_U1.10)   10.9470                   (X_U1.11)   15.9160    

(X_U1.12)   16.0000                   (X_U1.13)   10.9760                       

(X_U1.14)   10.9470                   (X_U1.53)   15.0000                       

(X_U1.54)  -15.0000                   (X_U1.90)  -40.6080                       

(X_U1.91)   40.0000                   (X_U1.92)  -40.0000                       

(X_U1.99)    0.0000                   (X_U2.10)   10.3080                       

(X_U2.11)   15.9160                   (X_U2.12)   16.0000                       

(X_U2.13)   10.3370                   (X_U2.14)   10.3080                       

(X_U2.53)   15.0000                   (X_U2.54)  -15.0000                       

(X_U2.90)  -40.6080                   (X_U2.91)   40.0000                       

(X_U2.92)  -40.0000                   (X_U2.99)    0.0000                       

(X_U3.10)    9.5974                   (X_U3.11)   15.9170                       

(X_U3.12)   16.0000                   (X_U3.13)    9.6265                       

(X_U3.14)    9.5974                   (X_U3.53)   15.0000                       

(X_U3.54)  -15.0000                   (X_U3.90)  -40.6070                       

(X_U3.91)   40.0000                   (X_U3.92)  -40.0000                       

(X_U3.99)    0.0000                   (X_U4.10)    5.3876                       

(X_U4.11)   15.9180                   (X_U4.12)   16.0000                       

(X_U4.13)    5.4162                   (X_U4.14)    5.3876                       

(X_U4.53)   15.0000                   (X_U4.54)  -15.0000                       

(X_U4.90)  -40.6110                   (X_U4.91)   40.0000                       

(X_U4.92)  -40.0000                   (X_U4.99)    0.0000                       

(X_U5.10)    -.6061                   (X_U5.11)   15.9620                       

(X_U5.12)   15.9620                   (X_U5.13)    -.5927                       

(X_U5.14)    -.5927                   (X_U5.53)   15.0000                       

(X_U5.54)    1.0000                   (X_U5.90)   20.0290                       

(X_U5.91)   40.0000                   (X_U5.92)  -40.0000                       

(X_U5.99)    8.0000                   




    VOLTAGE SOURCE CURRENTS
    NAME         CURRENT

    V_V2        -1.357E-01
    V_V1        -3.593E-02
    X_U5.vb     -5.188E-08
    X_U5.vc     -4.430E-04
    X_U5.ve      1.456E-11
    X_U5.vlim    2.003E-02
    X_U5.vlp    -1.997E-11
    X_U5.vln    -6.003E-11
    X_U4.vb      1.544E-05
    X_U4.vc      3.080E-11
    X_U4.ve     -2.102E-02
    X_U4.vlim   -4.061E-02
    X_U4.vlp    -8.061E-11
    X_U4.vln     1.425E-05
    X_U3.vb      1.578E-05
    X_U3.vc      3.082E-11
    X_U3.ve     -4.061E-02
    X_U3.vlim   -4.061E-02
    X_U3.vlp    -8.061E-11
    X_U3.vln     1.266E-05
    X_U2.vb      1.583E-05
    X_U2.vc      3.082E-11
    X_U2.ve     -4.061E-02
    X_U2.vlim   -4.061E-02
    X_U2.vlp    -8.061E-11
    X_U2.vln     1.272E-05
    X_U1.vb      1.589E-05
    X_U1.vc      3.082E-11
    X_U1.ve     -4.061E-02
    X_U1.vlim   -4.061E-02
    X_U1.vlp    -8.061E-11
    X_U1.vln     1.277E-05

    TOTAL POWER DISSIPATION  -1.46E+00  WATTS

 NODE   VOLTAGE     NODE   VOLTAGE     NODE   VOLTAGE     NODE   VOLTAGE


(  OUT) 3.224E-06  (  VCC)   16.0000  ( -VCC)  -16.0000  (N09294)   11.5880     

(N09472)  -15.8160 (N09568)  -15.8160 (N09654)  -15.8160 (N09690)   10.2510     

(N09756)  -15.8160 (N09834)    5.9964 (N09900)  -15.7990 (N13610)   10.9200     

(N16519)   15.6990 (N17329)  -15.7990 (N17714)  -15.8160 (N18668)  -11.8070     

(N19094)  -15.8160 (X_U1.6)    1.5886 (X_U1.7)  -17.8470 (X_U1.8)  -17.8470     

(X_U1.9)    0.0000 (X_U2.6)    1.5832 (X_U2.7)  -17.8470 (X_U2.8)  -17.8470     

(X_U2.9)    0.0000 (X_U3.6)    1.5778 (X_U3.7)  -17.8470 (X_U3.8)  -17.8470     

(X_U3.9)    0.0000 (X_U4.6)    1.5434 (X_U4.7)  -17.8300 (X_U4.8)  -17.8300     

(X_U4.9)    0.0000 (X_U5.6)    -.0052 (X_U5.7)   16.6950 (X_U5.8)   16.6950     

(X_U5.9)    0.0000 (X_U1.10)   10.9460                   (X_U1.11)   15.9160    

(X_U1.12)   16.0000                   (X_U1.13)   10.9750                       

(X_U1.14)   10.9460                   (X_U1.53)   15.0000                       

(X_U1.54)  -15.0000                   (X_U1.90)  -40.6080                       

(X_U1.91)   40.0000                   (X_U1.92)  -40.0000                       

(X_U1.99)    0.0000                   (X_U2.10)   10.2780                       

(X_U2.11)   15.9160                   (X_U2.12)   16.0000                       

(X_U2.13)   10.3070                   (X_U2.14)   10.2780                       

(X_U2.53)   15.0000                   (X_U2.54)  -15.0000                       

(X_U2.90)  -40.6080                   (X_U2.91)   40.0000                       

(X_U2.92)  -40.0000                   (X_U2.99)    0.0000                       

(X_U3.10)    9.6090                   (X_U3.11)   15.9170                       

(X_U3.12)   16.0000                   (X_U3.13)    9.6382                       

(X_U3.14)    9.6090                   (X_U3.53)   15.0000                       

(X_U3.54)  -15.0000                   (X_U3.90)  -40.6070                       

(X_U3.91)   40.0000                   (X_U3.92)  -40.0000                       

(X_U3.99)    0.0000                   (X_U4.10)    5.3553                       

(X_U4.11)   15.9180                   (X_U4.12)   16.0000                       

(X_U4.13)    5.3839                   (X_U4.14)    5.3553                       

(X_U4.53)   15.0000                   (X_U4.54)  -15.0000                       

(X_U4.90)  -40.6100                   (X_U4.91)   40.0000                       

(X_U4.92)  -40.0000                   (X_U4.99)    0.0000                       

(X_U5.10)    -.6061                   (X_U5.11)   15.9620                       

(X_U5.12)   15.9620                   (X_U5.13)    -.5927                       

(X_U5.14)    -.5927                   (X_U5.53)   15.0000                       

(X_U5.54)    1.0000                   (X_U5.90)   19.9190                       

(X_U5.91)   40.0000                   (X_U5.92)  -40.0000                       

(X_U5.99)    8.0000                   




    VOLTAGE SOURCE CURRENTS
    NAME         CURRENT

    V_V2        -1.358E-01
    V_V1        -3.610E-02
    X_U5.vb     -5.189E-08
    X_U5.vc     -4.433E-04
    X_U5.ve      1.456E-11
    X_U5.vlim    1.992E-02
    X_U5.vlp    -2.008E-11
    X_U5.vln    -5.992E-11
    X_U4.vb      1.543E-05
    X_U4.vc      3.080E-11
    X_U4.ve     -2.113E-02
    X_U4.vlim   -4.061E-02
    X_U4.vlp    -8.061E-11
    X_U4.vln     1.424E-05
    X_U3.vb      1.578E-05
    X_U3.vc      3.082E-11
    X_U3.ve     -4.061E-02
    X_U3.vlim   -4.061E-02
    X_U3.vlp    -8.061E-11
    X_U3.vln     1.266E-05
    X_U2.vb      1.583E-05
    X_U2.vc      3.082E-11
    X_U2.ve     -4.061E-02
    X_U2.vlim   -4.061E-02
    X_U2.vlp    -8.061E-11
    X_U2.vln     1.272E-05
    X_U1.vb      1.589E-05
    X_U1.vc      3.082E-11
    X_U1.ve     -4.061E-02
    X_U1.vlim   -4.061E-02
    X_U1.vlp    -8.061E-11
    X_U1.vln     1.277E-05

    TOTAL POWER DISSIPATION  -1.45E+00  WATTS

 NODE   VOLTAGE     NODE   VOLTAGE     NODE   VOLTAGE     NODE   VOLTAGE


(  OUT) 3.205E-06  (  VCC)   16.0000  ( -VCC)  -16.0000  (N09294)   11.5280     

(N09472)  -15.8160 (N09568)  -15.8160 (N09654)  -15.8160 (N09690)   10.2160     

(N09756)  -15.8160 (N09834)    6.0229 (N09900)  -15.7990 (N13610)   10.9780     

(N16519)   15.6990 (N17329)  -15.7990 (N17714)  -15.8160 (N18668)  -11.8030     

(N19094)  -15.8160 (X_U1.6)    1.5881 (X_U1.7)  -17.8470 (X_U1.8)  -17.8470     

(X_U1.9)    0.0000 (X_U2.6)    1.5837 (X_U2.7)  -17.8470 (X_U2.8)  -17.8470     

(X_U2.9)    0.0000 (X_U3.6)    1.5775 (X_U3.7)  -17.8470 (X_U3.8)  -17.8470     

(X_U3.9)    0.0000 (X_U4.6)    1.5436 (X_U4.7)  -17.8300 (X_U4.8)  -17.8300     

(X_U4.9)    0.0000 (X_U5.6)    -.0052 (X_U5.7)   16.7060 (X_U5.8)   16.7060     

(X_U5.9)    0.0000 (X_U1.10)   10.8850                   (X_U1.11)   15.9160    

(X_U1.12)   16.0000                   (X_U1.13)   10.9150                       

(X_U1.14)   10.8850                   (X_U1.53)   15.0000                       

(X_U1.54)  -15.0000                   (X_U1.90)  -40.6080                       

(X_U1.91)   40.0000                   (X_U1.92)  -40.0000                       

(X_U1.99)    0.0000                   (X_U2.10)   10.3350                       

(X_U2.11)   15.9160                   (X_U2.12)   16.0000                       

(X_U2.13)   10.3640                   (X_U2.14)   10.3350                       

(X_U2.53)   15.0000                   (X_U2.54)  -15.0000                       

(X_U2.90)  -40.6080                   (X_U2.91)   40.0000                       

(X_U2.92)  -40.0000                   (X_U2.99)    0.0000                       

(X_U3.10)    9.5733                   (X_U3.11)   15.9170                       

(X_U3.12)   16.0000                   (X_U3.13)    9.6025                       

(X_U3.14)    9.5733                   (X_U3.53)   15.0000                       

(X_U3.54)  -15.0000                   (X_U3.90)  -40.6070                       

(X_U3.91)   40.0000                   (X_U3.92)  -40.0000                       

(X_U3.99)    0.0000                   (X_U4.10)    5.3818                       

(X_U4.11)   15.9180                   (X_U4.12)   16.0000                       

(X_U4.13)    5.4104                   (X_U4.14)    5.3818                       

(X_U4.53)   15.0000                   (X_U4.54)  -15.0000                       

(X_U4.90)  -40.6110                   (X_U4.91)   40.0000                       

(X_U4.92)  -40.0000                   (X_U4.99)    0.0000                       

(X_U5.10)    -.6061                   (X_U5.11)   15.9620                       

(X_U5.12)   15.9620                   (X_U5.13)    -.5927                       

(X_U5.14)    -.5927                   (X_U5.53)   15.0000                       

(X_U5.54)    1.0000                   (X_U5.90)   20.1280                       

(X_U5.91)   40.0000                   (X_U5.92)  -40.0000                       

(X_U5.99)    8.0000                   




    VOLTAGE SOURCE CURRENTS
    NAME         CURRENT

    V_V2        -1.356E-01
    V_V1        -3.597E-02
    X_U5.vb     -5.189E-08
    X_U5.vc     -4.429E-04
    X_U5.ve      1.456E-11
    X_U5.vlim    2.013E-02
    X_U5.vlp    -1.987E-11
    X_U5.vln    -6.013E-11
    X_U4.vb      1.544E-05
    X_U4.vc      3.080E-11
    X_U4.ve     -2.093E-02
    X_U4.vlim   -4.061E-02
    X_U4.vlp    -8.061E-11
    X_U4.vln     1.426E-05
    X_U3.vb      1.578E-05
    X_U3.vc      3.082E-11
    X_U3.ve     -4.061E-02
    X_U3.vlim   -4.061E-02
    X_U3.vlp    -8.061E-11
    X_U3.vln     1.265E-05
    X_U2.vb      1.584E-05
    X_U2.vc      3.082E-11
    X_U2.ve     -4.061E-02
    X_U2.vlim   -4.061E-02
    X_U2.vlp    -8.061E-11
    X_U2.vln     1.272E-05
    X_U1.vb      1.588E-05
    X_U1.vc      3.082E-11
    X_U1.ve     -4.061E-02
    X_U1.vlim   -4.061E-02
    X_U1.vlp    -8.061E-11
    X_U1.vln     1.277E-05

    TOTAL POWER DISSIPATION  -1.45E+00  WATTS

 NODE   VOLTAGE     NODE   VOLTAGE     NODE   VOLTAGE     NODE   VOLTAGE


(  OUT) 3.237E-06  (  VCC)   16.0000  ( -VCC)  -16.0000  (N09294)   11.5560     

(N09472)  -15.8160 (N09568)  -15.8160 (N09654)  -15.8160 (N09690)   10.2210     

(N09756)  -15.8160 (N09834)    6.0094 (N09900)  -15.7990 (N13610)   10.8850     

(N16519)   15.6990 (N17329)  -15.7990 (N17714)  -15.8160 (N18668)  -11.8040     

(N19094)  -15.8160 (X_U1.6)    1.5884 (X_U1.7)  -17.8470 (X_U1.8)  -17.8470     

(X_U1.9)    0.0000 (X_U2.6)    1.5829 (X_U2.7)  -17.8470 (X_U2.8)  -17.8470     

(X_U2.9)    0.0000 (X_U3.6)    1.5776 (X_U3.7)  -17.8470 (X_U3.8)  -17.8470     

(X_U3.9)    0.0000 (X_U4.6)    1.5435 (X_U4.7)  -17.8300 (X_U4.8)  -17.8300     

(X_U4.9)    0.0000 (X_U5.6)    -.0052 (X_U5.7)   16.7030 (X_U5.8)   16.7030     

(X_U5.9)    0.0000 (X_U1.10)   10.9140                   (X_U1.11)   15.9160    

(X_U1.12)   16.0000                   (X_U1.13)   10.9430                       

(X_U1.14)   10.9140                   (X_U1.53)   15.0000                       

(X_U1.54)  -15.0000                   (X_U1.90)  -40.6080                       

(X_U1.91)   40.0000                   (X_U1.92)  -40.0000                       

(X_U1.99)    0.0000                   (X_U2.10)   10.2430                       

(X_U2.11)   15.9160                   (X_U2.12)   16.0000                       

(X_U2.13)   10.2720                   (X_U2.14)   10.2430                       

(X_U2.53)   15.0000                   (X_U2.54)  -15.0000                       

(X_U2.90)  -40.6080                   (X_U2.91)   40.0000                       

(X_U2.92)  -40.0000                   (X_U2.99)    0.0000                       

(X_U3.10)    9.5790                   (X_U3.11)   15.9170                       

(X_U3.12)   16.0000                   (X_U3.13)    9.6082                       

(X_U3.14)    9.5790                   (X_U3.53)   15.0000                       

(X_U3.54)  -15.0000                   (X_U3.90)  -40.6070                       

(X_U3.91)   40.0000                   (X_U3.92)  -40.0000                       

(X_U3.99)    0.0000                   (X_U4.10)    5.3683                       

(X_U4.11)   15.9180                   (X_U4.12)   16.0000                       

(X_U4.13)    5.3969                   (X_U4.14)    5.3683                       

(X_U4.53)   15.0000                   (X_U4.54)  -15.0000                       

(X_U4.90)  -40.6110                   (X_U4.91)   40.0000                       

(X_U4.92)  -40.0000                   (X_U4.99)    0.0000                       

(X_U5.10)    -.6061                   (X_U5.11)   15.9620                       

(X_U5.12)   15.9620                   (X_U5.13)    -.5927                       

(X_U5.14)    -.5927                   (X_U5.53)   15.0000                       

(X_U5.54)    1.0000                   (X_U5.90)   20.0760                       

(X_U5.91)   40.0000                   (X_U5.92)  -40.0000                       

(X_U5.99)    8.0000                   




    VOLTAGE SOURCE CURRENTS
    NAME         CURRENT

    V_V2        -1.357E-01
    V_V1        -3.610E-02
    X_U5.vb     -5.189E-08
    X_U5.vc     -4.431E-04
    X_U5.ve      1.456E-11
    X_U5.vlim    2.008E-02
    X_U5.vlp    -1.992E-11
    X_U5.vln    -6.008E-11
    X_U4.vb      1.543E-05
    X_U4.vc      3.080E-11
    X_U4.ve     -2.098E-02
    X_U4.vlim   -4.061E-02
    X_U4.vlp    -8.061E-11
    X_U4.vln     1.426E-05
    X_U3.vb      1.578E-05
    X_U3.vc      3.082E-11
    X_U3.ve     -4.061E-02
    X_U3.vlim   -4.061E-02
    X_U3.vlp    -8.061E-11
    X_U3.vln     1.266E-05
    X_U2.vb      1.583E-05
    X_U2.vc      3.082E-11
    X_U2.ve     -4.061E-02
    X_U2.vlim   -4.061E-02
    X_U2.vlp    -8.061E-11
    X_U2.vln     1.271E-05
    X_U1.vb      1.588E-05
    X_U1.vc      3.082E-11
    X_U1.ve     -4.061E-02
    X_U1.vlim   -4.061E-02
    X_U1.vlp    -8.061E-11
    X_U1.vln     1.277E-05

    TOTAL POWER DISSIPATION  -1.45E+00  WATTS

 NODE   VOLTAGE     NODE   VOLTAGE     NODE   VOLTAGE     NODE   VOLTAGE


(  OUT) 3.197E-06  (  VCC)   16.0000  ( -VCC)  -16.0000  (N09294)   11.5800     

(N09472)  -15.8160 (N09568)  -15.8160 (N09654)  -15.8160 (N09690)   10.2670     

(N09756)  -15.8160 (N09834)    5.9869 (N09900)  -15.7990 (N13610)   10.9380     

(N16519)   15.6990 (N17329)  -15.7990 (N17714)  -15.8160 (N18668)  -11.8030     

(N19094)  -15.8160 (X_U1.6)    1.5886 (X_U1.7)  -17.8470 (X_U1.8)  -17.8470     

(X_U1.9)    0.0000 (X_U2.6)    1.5834 (X_U2.7)  -17.8470 (X_U2.8)  -17.8470     

(X_U2.9)    0.0000 (X_U3.6)    1.5779 (X_U3.7)  -17.8470 (X_U3.8)  -17.8470     

(X_U3.9)    0.0000 (X_U4.6)    1.5433 (X_U4.7)  -17.8300 (X_U4.8)  -17.8300     

(X_U4.9)    0.0000 (X_U5.6)    -.0052 (X_U5.7)   16.7040 (X_U5.8)   16.7040     

(X_U5.9)    0.0000 (X_U1.10)   10.9370                   (X_U1.11)   15.9160    

(X_U1.12)   16.0000                   (X_U1.13)   10.9660                       

(X_U1.14)   10.9370                   (X_U1.53)   15.0000                       

(X_U1.54)  -15.0000                   (X_U1.90)  -40.6080                       

(X_U1.91)   40.0000                   (X_U1.92)  -40.0000                       

(X_U1.99)    0.0000                   (X_U2.10)   10.2960                       

(X_U2.11)   15.9160                   (X_U2.12)   16.0000                       

(X_U2.13)   10.3250                   (X_U2.14)   10.2960                       

(X_U2.53)   15.0000                   (X_U2.54)  -15.0000                       

(X_U2.90)  -40.6080                   (X_U2.91)   40.0000                       

(X_U2.92)  -40.0000                   (X_U2.99)    0.0000                       

(X_U3.10)    9.6243                   (X_U3.11)   15.9170                       

(X_U3.12)   16.0000                   (X_U3.13)    9.6535                       

(X_U3.14)    9.6243                   (X_U3.53)   15.0000                       

(X_U3.54)  -15.0000                   (X_U3.90)  -40.6070                       

(X_U3.91)   40.0000                   (X_U3.92)  -40.0000                       

(X_U3.99)    0.0000                   (X_U4.10)    5.3458                       

(X_U4.11)   15.9180                   (X_U4.12)   16.0000                       

(X_U4.13)    5.3744                   (X_U4.14)    5.3458                       

(X_U4.53)   15.0000                   (X_U4.54)  -15.0000                       

(X_U4.90)  -40.6110                   (X_U4.91)   40.0000                       

(X_U4.92)  -40.0000                   (X_U4.99)    0.0000                       

(X_U5.10)    -.6061                   (X_U5.11)   15.9620                       

(X_U5.12)   15.9620                   (X_U5.13)    -.5927                       

(X_U5.14)    -.5927                   (X_U5.53)   15.0000                       

(X_U5.54)    1.0000                   (X_U5.90)   20.0990                       

(X_U5.91)   40.0000                   (X_U5.92)  -40.0000                       

(X_U5.99)    8.0000                   




    VOLTAGE SOURCE CURRENTS
    NAME         CURRENT

    V_V2        -1.357E-01
    V_V1        -3.593E-02
    X_U5.vb     -5.189E-08
    X_U5.vc     -4.430E-04
    X_U5.ve      1.456E-11
    X_U5.vlim    2.010E-02
    X_U5.vlp    -1.990E-11
    X_U5.vln    -6.010E-11
    X_U4.vb      1.543E-05
    X_U4.vc      3.080E-11
    X_U4.ve     -2.095E-02
    X_U4.vlim   -4.061E-02
    X_U4.vlp    -8.061E-11
    X_U4.vln     1.426E-05
    X_U3.vb      1.578E-05
    X_U3.vc      3.082E-11
    X_U3.ve     -4.061E-02
    X_U3.vlim   -4.061E-02
    X_U3.vlp    -8.061E-11
    X_U3.vln     1.266E-05
    X_U2.vb      1.583E-05
    X_U2.vc      3.082E-11
    X_U2.ve     -4.061E-02
    X_U2.vlim   -4.061E-02
    X_U2.vlp    -8.061E-11
    X_U2.vln     1.272E-05
    X_U1.vb      1.589E-05
    X_U1.vc      3.082E-11
    X_U1.ve     -4.061E-02
    X_U1.vlim   -4.061E-02
    X_U1.vlp    -8.061E-11
    X_U1.vln     1.277E-05

    TOTAL POWER DISSIPATION  -1.45E+00  WATTS

 NODE   VOLTAGE     NODE   VOLTAGE     NODE   VOLTAGE     NODE   VOLTAGE


(  OUT) 3.186E-06  (  VCC)   16.0000  ( -VCC)  -16.0000  (N09294)   11.5740     

(N09472)  -15.8160 (N09568)  -15.8160 (N09654)  -15.8160 (N09690)   10.2470     

(N09756)  -15.8160 (N09834)    6.0633 (N09900)  -15.7990 (N13610)   10.8850     

(N16519)   15.6990 (N17329)  -15.7990 (N17714)  -15.8160 (N18668)  -11.8010     

(N19094)  -15.8160 (X_U1.6)    1.5885 (X_U1.7)  -17.8470 (X_U1.8)  -17.8470     

(X_U1.9)    0.0000 (X_U2.6)    1.5829 (X_U2.7)  -17.8470 (X_U2.8)  -17.8470     

(X_U2.9)    0.0000 (X_U3.6)    1.5778 (X_U3.7)  -17.8470 (X_U3.8)  -17.8470     

(X_U3.9)    0.0000 (X_U4.6)    1.5439 (X_U4.7)  -17.8300 (X_U4.8)  -17.8300     

(X_U4.9)    0.0000 (X_U5.6)    -.0052 (X_U5.7)   16.7090 (X_U5.8)   16.7090     

(X_U5.9)    0.0000 (X_U1.10)   10.9310                   (X_U1.11)   15.9160    

(X_U1.12)   16.0000                   (X_U1.13)   10.9610                       

(X_U1.14)   10.9310                   (X_U1.53)   15.0000                       

(X_U1.54)  -15.0000                   (X_U1.90)  -40.6080                       

(X_U1.91)   40.0000                   (X_U1.92)  -40.0000                       

(X_U1.99)    0.0000                   (X_U2.10)   10.2430                       

(X_U2.11)   15.9160                   (X_U2.12)   16.0000                       

(X_U2.13)   10.2720                   (X_U2.14)   10.2430                       

(X_U2.53)   15.0000                   (X_U2.54)  -15.0000                       

(X_U2.90)  -40.6080                   (X_U2.91)   40.0000                       

(X_U2.92)  -40.0000                   (X_U2.99)    0.0000                       

(X_U3.10)    9.6047                   (X_U3.11)   15.9170                       

(X_U3.12)   16.0000                   (X_U3.13)    9.6339                       

(X_U3.14)    9.6047                   (X_U3.53)   15.0000                       

(X_U3.54)  -15.0000                   (X_U3.90)  -40.6070                       

(X_U3.91)   40.0000                   (X_U3.92)  -40.0000                       

(X_U3.99)    0.0000                   (X_U4.10)    5.4223                       

(X_U4.11)   15.9180                   (X_U4.12)   16.0000                       

(X_U4.13)    5.4508                   (X_U4.14)    5.4223                       

(X_U4.53)   15.0000                   (X_U4.54)  -15.0000                       

(X_U4.90)  -40.6110                   (X_U4.91)   40.0000                       

(X_U4.92)  -40.0000                   (X_U4.99)    0.0000                       

(X_U5.10)    -.6061                   (X_U5.11)   15.9620                       

(X_U5.12)   15.9620                   (X_U5.13)    -.5927                       

(X_U5.14)    -.5927                   (X_U5.53)   15.0000                       

(X_U5.54)    1.0000                   (X_U5.90)   20.1980                       

(X_U5.91)   40.0000                   (X_U5.92)  -40.0000                       

(X_U5.99)    8.0000                   




    VOLTAGE SOURCE CURRENTS
    NAME         CURRENT

    V_V2        -1.356E-01
    V_V1        -3.602E-02
    X_U5.vb     -5.188E-08
    X_U5.vc     -4.428E-04
    X_U5.ve      1.456E-11
    X_U5.vlim    2.020E-02
    X_U5.vlp    -1.980E-11
    X_U5.vln    -6.020E-11
    X_U4.vb      1.544E-05
    X_U4.vc      3.080E-11
    X_U4.ve     -2.086E-02
    X_U4.vlim   -4.061E-02
    X_U4.vlp    -8.061E-11
    X_U4.vln     1.427E-05
    X_U3.vb      1.578E-05
    X_U3.vc      3.082E-11
    X_U3.ve     -4.061E-02
    X_U3.vlim   -4.061E-02
    X_U3.vlp    -8.061E-11
    X_U3.vln     1.266E-05
    X_U2.vb      1.583E-05
    X_U2.vc      3.082E-11
    X_U2.ve     -4.061E-02
    X_U2.vlim   -4.061E-02
    X_U2.vlp    -8.061E-11
    X_U2.vln     1.271E-05
    X_U1.vb      1.589E-05
    X_U1.vc      3.082E-11
    X_U1.ve     -4.061E-02
    X_U1.vlim   -4.061E-02
    X_U1.vlp    -8.061E-11
    X_U1.vln     1.277E-05

    TOTAL POWER DISSIPATION  -1.45E+00  WATTS

 NODE   VOLTAGE     NODE   VOLTAGE     NODE   VOLTAGE     NODE   VOLTAGE


(  OUT) 3.234E-06  (  VCC)   16.0000  ( -VCC)  -16.0000  (N09294)   11.5930     

(N09472)  -15.8160 (N09568)  -15.8160 (N09654)  -15.8160 (N09690)   10.2580     

(N09756)  -15.8160 (N09834)    5.9894 (N09900)  -15.7990 (N13610)   10.9050     

(N16519)   15.6990 (N17329)  -15.7990 (N17714)  -15.8160 (N18668)  -11.8070     

(N19094)  -15.8160 (X_U1.6)    1.5887 (X_U1.7)  -17.8470 (X_U1.8)  -17.8470     

(X_U1.9)    0.0000 (X_U2.6)    1.5831 (X_U2.7)  -17.8470 (X_U2.8)  -17.8470     

(X_U2.9)    0.0000 (X_U3.6)    1.5779 (X_U3.7)  -17.8470 (X_U3.8)  -17.8470     

(X_U3.9)    0.0000 (X_U4.6)    1.5433 (X_U4.7)  -17.8300 (X_U4.8)  -17.8300     

(X_U4.9)    0.0000 (X_U5.6)    -.0052 (X_U5.7)   16.6950 (X_U5.8)   16.6950     

(X_U5.9)    0.0000 (X_U1.10)   10.9500                   (X_U1.11)   15.9160    

(X_U1.12)   16.0000                   (X_U1.13)   10.9790                       

(X_U1.14)   10.9500                   (X_U1.53)   15.0000                       

(X_U1.54)  -15.0000                   (X_U1.90)  -40.6080                       

(X_U1.91)   40.0000                   (X_U1.92)  -40.0000                       

(X_U1.99)    0.0000                   (X_U2.10)   10.2620                       

(X_U2.11)   15.9160                   (X_U2.12)   16.0000                       

(X_U2.13)   10.2920                   (X_U2.14)   10.2620                       

(X_U2.53)   15.0000                   (X_U2.54)  -15.0000                       

(X_U2.90)  -40.6080                   (X_U2.91)   40.0000                       

(X_U2.92)  -40.0000                   (X_U2.99)    0.0000                       

(X_U3.10)    9.6158                   (X_U3.11)   15.9170                       

(X_U3.12)   16.0000                   (X_U3.13)    9.6449                       

(X_U3.14)    9.6158                   (X_U3.53)   15.0000                       

(X_U3.54)  -15.0000                   (X_U3.90)  -40.6070                       

(X_U3.91)   40.0000                   (X_U3.92)  -40.0000                       

(X_U3.99)    0.0000                   (X_U4.10)    5.3483                       

(X_U4.11)   15.9180                   (X_U4.12)   16.0000                       

(X_U4.13)    5.3769                   (X_U4.14)    5.3483                       

(X_U4.53)   15.0000                   (X_U4.54)  -15.0000                       

(X_U4.90)  -40.6100                   (X_U4.91)   40.0000                       

(X_U4.92)  -40.0000                   (X_U4.99)    0.0000                       

(X_U5.10)    -.6061                   (X_U5.11)   15.9620                       

(X_U5.12)   15.9620                   (X_U5.13)    -.5927                       

(X_U5.14)    -.5927                   (X_U5.53)   15.0000                       

(X_U5.54)    1.0000                   (X_U5.90)   19.9050                       

(X_U5.91)   40.0000                   (X_U5.92)  -40.0000                       

(X_U5.99)    8.0000                   




    VOLTAGE SOURCE CURRENTS
    NAME         CURRENT

    V_V2        -1.359E-01
    V_V1        -3.592E-02
    X_U5.vb     -5.189E-08
    X_U5.vc     -4.433E-04
    X_U5.ve      1.456E-11
    X_U5.vlim    1.991E-02
    X_U5.vlp    -2.010E-11
    X_U5.vln    -5.991E-11
    X_U4.vb      1.543E-05
    X_U4.vc      3.080E-11
    X_U4.ve     -2.115E-02
    X_U4.vlim   -4.061E-02
    X_U4.vlp    -8.061E-11
    X_U4.vln     1.424E-05
    X_U3.vb      1.578E-05
    X_U3.vc      3.082E-11
    X_U3.ve     -4.061E-02
    X_U3.vlim   -4.061E-02
    X_U3.vlp    -8.061E-11
    X_U3.vln     1.266E-05
    X_U2.vb      1.583E-05
    X_U2.vc      3.082E-11
    X_U2.ve     -4.061E-02
    X_U2.vlim   -4.061E-02
    X_U2.vlp    -8.061E-11
    X_U2.vln     1.271E-05
    X_U1.vb      1.589E-05
    X_U1.vc      3.082E-11
    X_U1.ve     -4.061E-02
    X_U1.vlim   -4.061E-02
    X_U1.vlp    -8.061E-11
    X_U1.vln     1.277E-05

    TOTAL POWER DISSIPATION  -1.46E+00  WATTS



Mean Deviation =   -1.3936E-09
Sigma          =   21.9020E-09

 RUN                    MAX DEVIATION FROM NOMINAL

Pass    4             30.6950E-09  (1.40 sigma)  lower  at T =   20.0000E-06
                        (  99.043% of Nominal)

Pass    7             30.6850E-09  (1.40 sigma)  higher  at T =   20.0000E-06
                        ( 100.96% of Nominal)

Pass    2             29.1110E-09  (1.33 sigma)  lower  at T =   20.0000E-06
                        (  99.092% of Nominal)

Pass   10             27.6420E-09  (1.26 sigma)  higher  at T =   20.0000E-06
                        ( 100.86% of Nominal)

Pass    9             20.5450E-09  ( .94 sigma)  lower  at T =   20.0000E-06
                        (  99.359% of Nominal)

Pass    5             17.7170E-09  ( .81 sigma)  higher  at T =   20.0000E-06
                        ( 100.55% of Nominal)

Pass    8              9.6570E-09  ( .44 sigma)  lower  at T =   20.0000E-06
                        (  99.699% of Nominal)

Pass    3              2.8483E-09  ( .13 sigma)  higher  at T =   20.0000E-06
                        ( 100.09% of Nominal)

Pass    6              1.4270E-09  ( .07 sigma)  lower  at T =   20.0000E-06
                        (  99.956% of Nominal)



          JOB CONCLUDED

**** 05/21/21 03:16:09 ****** PSpice 17.2.0 (March 2016) ****** ID# 0 ********

 ** Profile: "SCHEMATIC1-vac"  [ E:\An2_Sem2\Tehnici_CAD\Proiect\main-pspicefiles\schematic1\vac.sim ] 


 ****     JOB STATISTICS SUMMARY


******************************************************************************



  Total job time (using Solver 1)   =         .36
