
**** 05/21/21 01:23:46 ****** PSpice 17.2.0 (March 2016) ****** ID# 0 ********

 ** Profile: "SCHEMATIC1-tran"  [ E:\An2_Sem2\Tehnici_CAD\Proiect\main-PSpiceFiles\SCHEMATIC1\tran.sim ] 


 ****     CIRCUIT DESCRIPTION


******************************************************************************




** Creating circuit file "tran.cir" 
** WARNING: THIS AUTOMATICALLY GENERATED FILE MAY BE OVERWRITTEN BY SUBSEQUENT SIMULATIONS

*Libraries: 
* Profile Libraries :
* Local Libraries :
.LIB "../../../dimesionare_led.lib" 
.LIB "../../../main-pspicefiles/main.lib" 
* From [PSPICE NETLIST] section of C:\SPB_Data\cdssetup\OrCAD_PSpice\17.2.0\PSpice.ini file:
.lib "nom.lib" 

*Analysis directives: 
.TRAN  0 10s 0 
.TEMP -50 -25 0 27 50 75
.OPTIONS ADVCONV
.PROBE64 V(alias(*)) I(alias(*)) W(alias(*)) D(alias(*)) NOISE(alias(*)) 
.INC "..\SCHEMATIC1.net" 



**** INCLUDING SCHEMATIC1.net ****
* source MAIN
X_U5         OUT 0 VCC 0 N16519 uA741
V_V2         -VCC 0 -16
X_U4         OUT N09834 VCC -VCC N09900 uA741
V_V1         VCC 0 16
X_U3         OUT N09690 VCC -VCC N09756 uA741
X_U2         OUT N13610 VCC -VCC N09568 uA741
X_U1         OUT N09294 VCC -VCC N09472 uA741
R_R2         N09568 N19094  1.5k TC=0,0 
R_R4         N09900 N17329  1.47k TC=0,0 
R_R5         N09756 N09654  1.47k TC=0,0 
R_R6         OUT VCC R_R6 4.99k TC=0,0 
.model        R_R6 RES R=1 DEV=1% TC1=0 TC2=0
X_R7         0 OUT OUT POT PARAMS: SET={SET} VALUE=20k
R_R8         0 N09294  2.61k TC=0,0 
R_R9         N09294 VCC R_R9 1k TC=0,0 
.model        R_R9 RES R=1 DEV=1% TC1=0 TC2=0
R_R11         0 N13610  2.15k TC=0,0 
R_R13         0 N09690  1.78k TC=0,0 
R_R15         0 N09834  604 TC=0,0 
R_R16         N09472 N17714  698 TC=0,0 
R_R17         N16519 N18668  1.4k TC=0,0 
R_R10         VCC N13610  1k TC=0,0 
R_R12         VCC N09690  1k TC=0,0 
R_R14         VCC N09834  1k TC=0,0 
D_D15         N09654 N09568 LED_GALBEN 
D_D17         N17714 0 LED_ROSU 
D_D18         N18668 N09900 LED_ALBASTRU 
D_D14         N17329 N09756 LED_VERDE 
D_D16         N19094 N09472 LED_PORTOCALIU 
.PARAM  set=1

**** RESUMING tran.cir ****
.END

**** 05/21/21 01:23:46 ****** PSpice 17.2.0 (March 2016) ****** ID# 0 ********

 ** Profile: "SCHEMATIC1-tran"  [ E:\An2_Sem2\Tehnici_CAD\Proiect\main-PSpiceFiles\SCHEMATIC1\tran.sim ] 


 ****     Diode MODEL PARAMETERS


******************************************************************************




               LED_GALBEN      LED_ROSU        LED_ALBASTRU    LED_VERDE       
          IS    3.261600E-06  410.580000E-12  120.050000E-18  943.610000E-12 
           N    4.995           3.6144          4.3893          3.4471       
          RS    4.4854          9.4285         14.259           8.0431       


               LED_PORTOCALIU  X_U5.dx         X_U5.dy         X_U4.dx         
          IS    2.746300E-12  800.000000E-18  800.000000E-18  800.000000E-18 
           N    2.6136                                                       
          RS    6.312000E-06    1               1.000000E-03    1            
         CJO                                   10.000000E-12                 


               X_U4.dy         X_U3.dx         X_U3.dy         X_U2.dx         
          IS  800.000000E-18  800.000000E-18  800.000000E-18  800.000000E-18 
          RS    1.000000E-03    1               1.000000E-03    1            
         CJO   10.000000E-12                   10.000000E-12                 


               X_U2.dy         X_U1.dx         X_U1.dy         
          IS  800.000000E-18  800.000000E-18  800.000000E-18 
          RS    1.000000E-03    1               1.000000E-03 
         CJO   10.000000E-12                   10.000000E-12 


**** 05/21/21 01:23:46 ****** PSpice 17.2.0 (March 2016) ****** ID# 0 ********

 ** Profile: "SCHEMATIC1-tran"  [ E:\An2_Sem2\Tehnici_CAD\Proiect\main-PSpiceFiles\SCHEMATIC1\tran.sim ] 


 ****     BJT MODEL PARAMETERS


******************************************************************************




               X_U5.qx         X_U4.qx         X_U3.qx         X_U2.qx         
               NPN             NPN             NPN             NPN             
       LEVEL    1               1               1               1            
          IS  800.000000E-18  800.000000E-18  800.000000E-18  800.000000E-18 
          BF   93.75           93.75           93.75           93.75         
          NF    1               1               1               1            
          BR    1               1               1               1            
          NR    1               1               1               1            
         ISS    0               0               0               0            
          RE    0               0               0               0            
          RC    0               0               0               0            
         CJE    0               0               0               0            
         VJE     .75             .75             .75             .75         
         CJC    0               0               0               0            
         VJC     .75             .75             .75             .75         
         MJC     .33             .33             .33             .33         
        XCJC    1               1               1               1            
         CJS    0               0               0               0            
         VJS     .75             .75             .75             .75         
          KF    0               0               0               0            
          AF    1               1               1               1            
          CN    2.42            2.42            2.42            2.42         
           D     .87             .87             .87             .87         


               X_U1.qx         
               NPN             
       LEVEL    1            
          IS  800.000000E-18 
          BF   93.75         
          NF    1            
          BR    1            
          NR    1            
         ISS    0            
          RE    0            
          RC    0            
         CJE    0            
         VJE     .75         
         CJC    0            
         VJC     .75         
         MJC     .33         
        XCJC    1            
         CJS    0            
         VJS     .75         
          KF    0            
          AF    1            
          CN    2.42         
           D     .87         


**** 05/21/21 01:23:46 ****** PSpice 17.2.0 (March 2016) ****** ID# 0 ********

 ** Profile: "SCHEMATIC1-tran"  [ E:\An2_Sem2\Tehnici_CAD\Proiect\main-PSpiceFiles\SCHEMATIC1\tran.sim ] 


 ****     Resistor MODEL PARAMETERS


******************************************************************************




               R_R6            R_R9            
           R    1               1            


**** 05/21/21 01:23:46 ****** PSpice 17.2.0 (March 2016) ****** ID# 0 ********

 ** Profile: "SCHEMATIC1-tran"  [ E:\An2_Sem2\Tehnici_CAD\Proiect\main-PSpiceFiles\SCHEMATIC1\tran.sim ] 


 ****     TEMPERATURE-ADJUSTED VALUES      TEMPERATURE =  -50.000 DEG C


******************************************************************************




 **** DIODE MODEL PARAMETERS

                 LED_GALBEN      LED_ROSU     LED_ALBASTRU  

         IS        1.408E-07      5.335E-12      3.358E-18  
         VJ        1.065E+00      1.065E+00      1.065E+00  
        CJO        0.000E+00      0.000E+00      0.000E+00  
         RS        4.485E+00      9.429E+00      1.426E+01  
        IKF        0.000E+00      0.000E+00      0.000E+00  
         BV                   

                  LED_VERDE   LED_PORTOCALIU     X_U5.dy    

         IS        9.932E-12      6.765E-15      1.218E-22  
         VJ        1.065E+00      1.065E+00      1.065E+00  
        CJO        0.000E+00      0.000E+00      9.520E-12  
         RS        8.043E+00      6.312E-06      1.000E-03  
        IKF        0.000E+00      0.000E+00      0.000E+00  
         BV                   

                   X_U5.dx        X_U4.dy        X_U4.dx    

         IS        1.218E-22      1.218E-22      1.218E-22  
         VJ        1.065E+00      1.065E+00      1.065E+00  
        CJO        0.000E+00      9.520E-12      0.000E+00  
         RS        1.000E+00      1.000E-03      1.000E+00  
        IKF        0.000E+00      0.000E+00      0.000E+00  
         BV                   

                   X_U3.dy        X_U3.dx        X_U2.dy    

         IS        1.218E-22      1.218E-22      1.218E-22  
         VJ        1.065E+00      1.065E+00      1.065E+00  
        CJO        9.520E-12      0.000E+00      9.520E-12  
         RS        1.000E-03      1.000E+00      1.000E-03  
        IKF        0.000E+00      0.000E+00      0.000E+00  
         BV                   

                   X_U2.dx        X_U1.dy        X_U1.dx    

         IS        1.218E-22      1.218E-22      1.218E-22  
         VJ        1.065E+00      1.065E+00      1.065E+00  
        CJO        0.000E+00      9.520E-12      0.000E+00  
         RS        1.000E+00      1.000E-03      1.000E+00  
        IKF        0.000E+00      0.000E+00      0.000E+00  
         BV                   


 **** BJT MODEL PARAMETERS

                   X_U5.qx        X_U4.qx        X_U3.qx    

         BF        9.375E+01      9.375E+01      9.375E+01  
        ISE        0.000E+00      0.000E+00      0.000E+00  
        VJE        8.794E-01      8.794E-01      8.794E-01  
        CJE        0.000E+00      0.000E+00      0.000E+00  
         RE        0.000E+00      0.000E+00      0.000E+00  
         RB        0.000E+00      0.000E+00      0.000E+00  
         BR        1.000E+00      1.000E+00      1.000E+00  
        ISC        0.000E+00      0.000E+00      0.000E+00  
        VJC        8.794E-01      8.794E-01      8.794E-01  
        CJC        0.000E+00      0.000E+00      0.000E+00  
         RC        0.000E+00      0.000E+00      0.000E+00  
        RBM        0.000E+00      0.000E+00      0.000E+00  
         IS        1.218E-22      1.218E-22      1.218E-22  
        ISS        0.000E+00      0.000E+00      0.000E+00  
        VJS        8.794E-01      8.794E-01      8.794E-01  
        CJS        0.000E+00      0.000E+00      0.000E+00  
      GAMMA        1.000E-11      1.000E-11      1.000E-11  
        RCO        0.000E+00      0.000E+00      0.000E+00  
         VO        1.000E+01      1.000E+01      1.000E+01  

                   X_U2.qx        X_U1.qx                   

         BF        9.375E+01      9.375E+01  
        ISE        0.000E+00      0.000E+00  
        VJE        8.794E-01      8.794E-01  
        CJE        0.000E+00      0.000E+00  
         RE        0.000E+00      0.000E+00  
         RB        0.000E+00      0.000E+00  
         BR        1.000E+00      1.000E+00  
        ISC        0.000E+00      0.000E+00  
        VJC        8.794E-01      8.794E-01  
        CJC        0.000E+00      0.000E+00  
         RC        0.000E+00      0.000E+00  
        RBM        0.000E+00      0.000E+00  
         IS        1.218E-22      1.218E-22  
        ISS        0.000E+00      0.000E+00  
        VJS        8.794E-01      8.794E-01  
        CJS        0.000E+00      0.000E+00  
      GAMMA        1.000E-11      1.000E-11  
        RCO        0.000E+00      0.000E+00  
         VO        1.000E+01      1.000E+01  


 **** RESISTORS

                 R_R6 <R_R6>    R_R9 <R_R9>                 

          R        4.990E+03      1.000E+03  



**** 05/21/21 01:23:46 ****** PSpice 17.2.0 (March 2016) ****** ID# 0 ********

 ** Profile: "SCHEMATIC1-tran"  [ E:\An2_Sem2\Tehnici_CAD\Proiect\main-PSpiceFiles\SCHEMATIC1\tran.sim ] 


 ****     INITIAL TRANSIENT SOLUTION       TEMPERATURE =  -50.000 DEG C


******************************************************************************



 NODE   VOLTAGE     NODE   VOLTAGE     NODE   VOLTAGE     NODE   VOLTAGE


(  OUT) 3.206E-06  (  VCC)   16.0000  ( -VCC)  -16.0000  (N09294)   11.5680     

(N09472)  -15.9090 (N09568)  -15.9090 (N09654)  -15.9090 (N09690)   10.2450     

(N09756)  -15.9090 (N09834)    6.0249 (N09900)  -15.8960 (N13610)   10.9210     

(N16519)   15.8220 (N17329)  -15.8960 (N17714)  -15.9090 (N18668)  -12.5400     

(N19094)  -15.9090 (X_U1.6)    1.5873 (X_U1.7)  -17.9460 (X_U1.8)  -17.9460     

(X_U1.9)    0.0000 (X_U2.6)    1.5820 (X_U2.7)  -17.9460 (X_U2.8)  -17.9460     

(X_U2.9)    0.0000 (X_U3.6)    1.5766 (X_U3.7)  -17.9460 (X_U3.8)  -17.9460     

(X_U3.9)    0.0000 (X_U4.6)    1.5424 (X_U4.7)  -17.9330 (X_U4.8)  -17.9330     

(X_U4.9)    0.0000 (X_U5.6)    -.0053 (X_U5.7)   16.8580 (X_U5.8)   16.8580     

(X_U5.9)    0.0000 (X_U1.10)   10.7810                   (X_U1.11)   15.9160    

(X_U1.12)   16.0000                   (X_U1.13)   10.8100                       

(X_U1.14)   10.7810                   (X_U1.53)   15.0000                       

(X_U1.54)  -15.0000                   (X_U1.90)  -40.7540                       

(X_U1.91)   40.0000                   (X_U1.92)  -40.0000                       

(X_U1.99)    0.0000                   (X_U2.10)   10.1340                       

(X_U2.11)   15.9160                   (X_U2.12)   16.0000                       

(X_U2.13)   10.1630                   (X_U2.14)   10.1340                       

(X_U2.53)   15.0000                   (X_U2.54)  -15.0000                       

(X_U2.90)  -40.7540                   (X_U2.91)   40.0000                       

(X_U2.92)  -40.0000                   (X_U2.99)    0.0000                       

(X_U3.10)    9.4577                   (X_U3.11)   15.9170                       

(X_U3.12)   16.0000                   (X_U3.13)    9.4869                       

(X_U3.14)    9.4577                   (X_U3.53)   15.0000                       

(X_U3.54)  -15.0000                   (X_U3.90)  -40.7530                       

(X_U3.91)   40.0000                   (X_U3.92)  -40.0000                       

(X_U3.99)    0.0000                   (X_U4.10)    5.2391                       

(X_U4.11)   15.9180                   (X_U4.12)   16.0000                       

(X_U4.13)    5.2677                   (X_U4.14)    5.2391                       

(X_U4.53)   15.0000                   (X_U4.54)  -15.0000                       

(X_U4.90)  -40.7560                   (X_U4.91)   40.0000                       

(X_U4.92)  -40.0000                   (X_U4.99)    0.0000                       

(X_U5.10)    -.7558                   (X_U5.11)   15.9620                       

(X_U5.12)   15.9620                   (X_U5.13)    -.7425                       

(X_U5.14)    -.7425                   (X_U5.53)   15.0000                       

(X_U5.54)    1.0000                   (X_U5.90)   20.7100                       

(X_U5.91)   40.0000                   (X_U5.92)  -40.0000                       

(X_U5.99)    8.0000                   




    VOLTAGE SOURCE CURRENTS
    NAME         CURRENT

    V_V2        -1.356E-01
    V_V1        -3.600E-02
    X_U5.vb     -5.290E-08
    X_U5.vc     -4.516E-04
    X_U5.ve      1.469E-11
    X_U5.vlim    2.071E-02
    X_U5.vlp    -1.929E-11
    X_U5.vln    -6.071E-11
    X_U4.vb      1.542E-05
    X_U4.vc      3.090E-11
    X_U4.ve     -2.050E-02
    X_U4.vlim   -4.076E-02
    X_U4.vlp    -8.076E-11
    X_U4.vln     1.429E-05
    X_U3.vb      1.577E-05
    X_U3.vc      3.091E-11
    X_U3.ve     -4.075E-02
    X_U3.vlim   -4.075E-02
    X_U3.vlp    -8.075E-11
    X_U3.vln     1.263E-05
    X_U2.vb      1.582E-05
    X_U2.vc      3.091E-11
    X_U2.ve     -4.075E-02
    X_U2.vlim   -4.075E-02
    X_U2.vlp    -8.075E-11
    X_U2.vln     1.269E-05
    X_U1.vb      1.587E-05
    X_U1.vc      3.091E-11
    X_U1.ve     -4.075E-02
    X_U1.vlim   -4.075E-02
    X_U1.vlp    -8.075E-11
    X_U1.vln     1.274E-05

    TOTAL POWER DISSIPATION  -1.45E+00  WATTS


**** 05/21/21 01:23:46 ****** PSpice 17.2.0 (March 2016) ****** ID# 0 ********

 ** Profile: "SCHEMATIC1-tran"  [ E:\An2_Sem2\Tehnici_CAD\Proiect\main-PSpiceFiles\SCHEMATIC1\tran.sim ] 


 ****     TEMPERATURE-ADJUSTED VALUES      TEMPERATURE =  -25.000 DEG C


******************************************************************************




 **** DIODE MODEL PARAMETERS

                 LED_GALBEN      LED_ROSU     LED_ALBASTRU  

         IS        4.807E-07      2.912E-11      1.359E-17  
         VJ        1.045E+00      1.045E+00      1.045E+00  
        CJO        0.000E+00      0.000E+00      0.000E+00  
         RS        4.485E+00      9.429E+00      1.426E+01  
        IKF        0.000E+00      0.000E+00      0.000E+00  
         BV                   

                  LED_VERDE   LED_PORTOCALIU     X_U5.dy    

         IS        5.886E-11      7.072E-14      5.617E-20  
         VJ        1.045E+00      1.045E+00      1.045E+00  
        CJO        0.000E+00      0.000E+00      9.670E-12  
         RS        8.043E+00      6.312E-06      1.000E-03  
        IKF        0.000E+00      0.000E+00      0.000E+00  
         BV                   

                   X_U5.dx        X_U4.dy        X_U4.dx    

         IS        5.617E-20      5.617E-20      5.617E-20  
         VJ        1.045E+00      1.045E+00      1.045E+00  
        CJO        0.000E+00      9.670E-12      0.000E+00  
         RS        1.000E+00      1.000E-03      1.000E+00  
        IKF        0.000E+00      0.000E+00      0.000E+00  
         BV                   

                   X_U3.dy        X_U3.dx        X_U2.dy    

         IS        5.617E-20      5.617E-20      5.617E-20  
         VJ        1.045E+00      1.045E+00      1.045E+00  
        CJO        9.670E-12      0.000E+00      9.670E-12  
         RS        1.000E-03      1.000E+00      1.000E-03  
        IKF        0.000E+00      0.000E+00      0.000E+00  
         BV                   

                   X_U2.dx        X_U1.dy        X_U1.dx    

         IS        5.617E-20      5.617E-20      5.617E-20  
         VJ        1.045E+00      1.045E+00      1.045E+00  
        CJO        0.000E+00      9.670E-12      0.000E+00  
         RS        1.000E+00      1.000E-03      1.000E+00  
        IKF        0.000E+00      0.000E+00      0.000E+00  
         BV                   


 **** BJT MODEL PARAMETERS

                   X_U5.qx        X_U4.qx        X_U3.qx    

         BF        9.375E+01      9.375E+01      9.375E+01  
        ISE        0.000E+00      0.000E+00      0.000E+00  
        VJE        8.385E-01      8.385E-01      8.385E-01  
        CJE        0.000E+00      0.000E+00      0.000E+00  
         RE        0.000E+00      0.000E+00      0.000E+00  
         RB        0.000E+00      0.000E+00      0.000E+00  
         BR        1.000E+00      1.000E+00      1.000E+00  
        ISC        0.000E+00      0.000E+00      0.000E+00  
        VJC        8.385E-01      8.385E-01      8.385E-01  
        CJC        0.000E+00      0.000E+00      0.000E+00  
         RC        0.000E+00      0.000E+00      0.000E+00  
        RBM        0.000E+00      0.000E+00      0.000E+00  
         IS        5.617E-20      5.617E-20      5.617E-20  
        ISS        0.000E+00      0.000E+00      0.000E+00  
        VJS        8.385E-01      8.385E-01      8.385E-01  
        CJS        0.000E+00      0.000E+00      0.000E+00  
      GAMMA        1.000E-11      1.000E-11      1.000E-11  
        RCO        0.000E+00      0.000E+00      0.000E+00  
         VO        1.000E+01      1.000E+01      1.000E+01  

                   X_U2.qx        X_U1.qx                   

         BF        9.375E+01      9.375E+01  
        ISE        0.000E+00      0.000E+00  
        VJE        8.385E-01      8.385E-01  
        CJE        0.000E+00      0.000E+00  
         RE        0.000E+00      0.000E+00  
         RB        0.000E+00      0.000E+00  
         BR        1.000E+00      1.000E+00  
        ISC        0.000E+00      0.000E+00  
        VJC        8.385E-01      8.385E-01  
        CJC        0.000E+00      0.000E+00  
         RC        0.000E+00      0.000E+00  
        RBM        0.000E+00      0.000E+00  
         IS        5.617E-20      5.617E-20  
        ISS        0.000E+00      0.000E+00  
        VJS        8.385E-01      8.385E-01  
        CJS        0.000E+00      0.000E+00  
      GAMMA        1.000E-11      1.000E-11  
        RCO        0.000E+00      0.000E+00  
         VO        1.000E+01      1.000E+01  


 **** RESISTORS

                 R_R6 <R_R6>    R_R9 <R_R9>                 

          R        4.990E+03      1.000E+03  



**** 05/21/21 01:23:46 ****** PSpice 17.2.0 (March 2016) ****** ID# 0 ********

 ** Profile: "SCHEMATIC1-tran"  [ E:\An2_Sem2\Tehnici_CAD\Proiect\main-PSpiceFiles\SCHEMATIC1\tran.sim ] 


 ****     INITIAL TRANSIENT SOLUTION       TEMPERATURE =  -25.000 DEG C


******************************************************************************



 NODE   VOLTAGE     NODE   VOLTAGE     NODE   VOLTAGE     NODE   VOLTAGE


(  OUT) 3.206E-06  (  VCC)   16.0000  ( -VCC)  -16.0000  (N09294)   11.5680     

(N09472)  -15.8790 (N09568)  -15.8790 (N09654)  -15.8790 (N09690)   10.2450     

(N09756)  -15.8790 (N09834)    6.0249 (N09900)  -15.8650 (N13610)   10.9210     

(N16519)   15.7830 (N17329)  -15.8650 (N17714)  -15.8790 (N18668)  -12.3010     

(N19094)  -15.8790 (X_U1.6)    1.5877 (X_U1.7)  -17.9150 (X_U1.8)  -17.9150     

(X_U1.9)    0.0000 (X_U2.6)    1.5824 (X_U2.7)  -17.9150 (X_U2.8)  -17.9150     

(X_U2.9)    0.0000 (X_U3.6)    1.5769 (X_U3.7)  -17.9150 (X_U3.8)  -17.9150     

(X_U3.9)    0.0000 (X_U4.6)    1.5428 (X_U4.7)  -17.9000 (X_U4.8)  -17.9000     

(X_U4.9)    0.0000 (X_U5.6)    -.0053 (X_U5.7)   16.8080 (X_U5.8)   16.8080     

(X_U5.9)    0.0000 (X_U1.10)   10.8270                   (X_U1.11)   15.9160    

(X_U1.12)   16.0000                   (X_U1.13)   10.8560                       

(X_U1.14)   10.8270                   (X_U1.53)   15.0000                       

(X_U1.54)  -15.0000                   (X_U1.90)  -40.7070                       

(X_U1.91)   40.0000                   (X_U1.92)  -40.0000                       

(X_U1.99)    0.0000                   (X_U2.10)   10.1800                       

(X_U2.11)   15.9160                   (X_U2.12)   16.0000                       

(X_U2.13)   10.2090                   (X_U2.14)   10.1800                       

(X_U2.53)   15.0000                   (X_U2.54)  -15.0000                       

(X_U2.90)  -40.7070                   (X_U2.91)   40.0000                       

(X_U2.92)  -40.0000                   (X_U2.99)    0.0000                       

(X_U3.10)    9.5040                   (X_U3.11)   15.9170                       

(X_U3.12)   16.0000                   (X_U3.13)    9.5332                       

(X_U3.14)    9.5040                   (X_U3.53)   15.0000                       

(X_U3.54)  -15.0000                   (X_U3.90)  -40.7070                       

(X_U3.91)   40.0000                   (X_U3.92)  -40.0000                       

(X_U3.99)    0.0000                   (X_U4.10)    5.2854                       

(X_U4.11)   15.9180                   (X_U4.12)   16.0000                       

(X_U4.13)    5.3140                   (X_U4.14)    5.2854                       

(X_U4.53)   15.0000                   (X_U4.54)  -15.0000                       

(X_U4.90)  -40.7090                   (X_U4.91)   40.0000                       

(X_U4.92)  -40.0000                   (X_U4.99)    0.0000                       

(X_U5.10)    -.7079                   (X_U5.11)   15.9620                       

(X_U5.12)   15.9620                   (X_U5.13)    -.6945                       

(X_U5.14)    -.6945                   (X_U5.53)   15.0000                       

(X_U5.54)    1.0000                   (X_U5.90)   20.5080                       

(X_U5.91)   40.0000                   (X_U5.92)  -40.0000                       

(X_U5.99)    8.0000                   




    VOLTAGE SOURCE CURRENTS
    NAME         CURRENT

    V_V2        -1.357E-01
    V_V1        -3.601E-02
    X_U5.vb     -5.257E-08
    X_U5.vc     -4.488E-04
    X_U5.ve      1.465E-11
    X_U5.vlim    2.051E-02
    X_U5.vlp    -1.949E-11
    X_U5.vln    -6.051E-11
    X_U4.vb      1.543E-05
    X_U4.vc      3.086E-11
    X_U4.ve     -2.065E-02
    X_U4.vlim   -4.071E-02
    X_U4.vlp    -8.071E-11
    X_U4.vln     1.428E-05
    X_U3.vb      1.577E-05
    X_U3.vc      3.088E-11
    X_U3.ve     -4.071E-02
    X_U3.vlim   -4.071E-02
    X_U3.vlp    -8.071E-11
    X_U3.vln     1.264E-05
    X_U2.vb      1.582E-05
    X_U2.vc      3.088E-11
    X_U2.ve     -4.071E-02
    X_U2.vlim   -4.071E-02
    X_U2.vlp    -8.071E-11
    X_U2.vln     1.270E-05
    X_U1.vb      1.588E-05
    X_U1.vc      3.088E-11
    X_U1.ve     -4.071E-02
    X_U1.vlim   -4.071E-02
    X_U1.vlp    -8.071E-11
    X_U1.vln     1.275E-05

    TOTAL POWER DISSIPATION  -1.45E+00  WATTS


**** 05/21/21 01:23:46 ****** PSpice 17.2.0 (March 2016) ****** ID# 0 ********

 ** Profile: "SCHEMATIC1-tran"  [ E:\An2_Sem2\Tehnici_CAD\Proiect\main-PSpiceFiles\SCHEMATIC1\tran.sim ] 


 ****     TEMPERATURE-ADJUSTED VALUES      TEMPERATURE =    0.000 DEG C


******************************************************************************




 **** DIODE MODEL PARAMETERS

                 LED_GALBEN      LED_ROSU     LED_ALBASTRU  

         IS        1.318E-06      1.174E-10      4.282E-17  
         VJ        1.024E+00      1.024E+00      1.024E+00  
        CJO        0.000E+00      0.000E+00      0.000E+00  
         RS        4.485E+00      9.429E+00      1.426E+01  
        IKF        0.000E+00      0.000E+00      0.000E+00  
         BV                   

                  LED_VERDE   LED_PORTOCALIU     X_U5.dy    

         IS        2.539E-10      4.862E-13      8.668E-18  
         VJ        1.024E+00      1.024E+00      1.024E+00  
        CJO        0.000E+00      0.000E+00      9.826E-12  
         RS        8.043E+00      6.312E-06      1.000E-03  
        IKF        0.000E+00      0.000E+00      0.000E+00  
         BV                   

                   X_U5.dx        X_U4.dy        X_U4.dx    

         IS        8.668E-18      8.668E-18      8.668E-18  
         VJ        1.024E+00      1.024E+00      1.024E+00  
        CJO        0.000E+00      9.826E-12      0.000E+00  
         RS        1.000E+00      1.000E-03      1.000E+00  
        IKF        0.000E+00      0.000E+00      0.000E+00  
         BV                   

                   X_U3.dy        X_U3.dx        X_U2.dy    

         IS        8.668E-18      8.668E-18      8.668E-18  
         VJ        1.024E+00      1.024E+00      1.024E+00  
        CJO        9.826E-12      0.000E+00      9.826E-12  
         RS        1.000E-03      1.000E+00      1.000E-03  
        IKF        0.000E+00      0.000E+00      0.000E+00  
         BV                   

                   X_U2.dx        X_U1.dy        X_U1.dx    

         IS        8.668E-18      8.668E-18      8.668E-18  
         VJ        1.024E+00      1.024E+00      1.024E+00  
        CJO        0.000E+00      9.826E-12      0.000E+00  
         RS        1.000E+00      1.000E-03      1.000E+00  
        IKF        0.000E+00      0.000E+00      0.000E+00  
         BV                   


 **** BJT MODEL PARAMETERS

                   X_U5.qx        X_U4.qx        X_U3.qx    

         BF        9.375E+01      9.375E+01      9.375E+01  
        ISE        0.000E+00      0.000E+00      0.000E+00  
        VJE        7.965E-01      7.965E-01      7.965E-01  
        CJE        0.000E+00      0.000E+00      0.000E+00  
         RE        0.000E+00      0.000E+00      0.000E+00  
         RB        0.000E+00      0.000E+00      0.000E+00  
         BR        1.000E+00      1.000E+00      1.000E+00  
        ISC        0.000E+00      0.000E+00      0.000E+00  
        VJC        7.965E-01      7.965E-01      7.965E-01  
        CJC        0.000E+00      0.000E+00      0.000E+00  
         RC        0.000E+00      0.000E+00      0.000E+00  
        RBM        0.000E+00      0.000E+00      0.000E+00  
         IS        8.668E-18      8.668E-18      8.668E-18  
        ISS        0.000E+00      0.000E+00      0.000E+00  
        VJS        7.965E-01      7.965E-01      7.965E-01  
        CJS        0.000E+00      0.000E+00      0.000E+00  
      GAMMA        1.000E-11      1.000E-11      1.000E-11  
        RCO        0.000E+00      0.000E+00      0.000E+00  
         VO        1.000E+01      1.000E+01      1.000E+01  

                   X_U2.qx        X_U1.qx                   

         BF        9.375E+01      9.375E+01  
        ISE        0.000E+00      0.000E+00  
        VJE        7.965E-01      7.965E-01  
        CJE        0.000E+00      0.000E+00  
         RE        0.000E+00      0.000E+00  
         RB        0.000E+00      0.000E+00  
         BR        1.000E+00      1.000E+00  
        ISC        0.000E+00      0.000E+00  
        VJC        7.965E-01      7.965E-01  
        CJC        0.000E+00      0.000E+00  
         RC        0.000E+00      0.000E+00  
        RBM        0.000E+00      0.000E+00  
         IS        8.668E-18      8.668E-18  
        ISS        0.000E+00      0.000E+00  
        VJS        7.965E-01      7.965E-01  
        CJS        0.000E+00      0.000E+00  
      GAMMA        1.000E-11      1.000E-11  
        RCO        0.000E+00      0.000E+00  
         VO        1.000E+01      1.000E+01  


 **** RESISTORS

                 R_R6 <R_R6>    R_R9 <R_R9>                 

          R        4.990E+03      1.000E+03  



**** 05/21/21 01:23:46 ****** PSpice 17.2.0 (March 2016) ****** ID# 0 ********

 ** Profile: "SCHEMATIC1-tran"  [ E:\An2_Sem2\Tehnici_CAD\Proiect\main-PSpiceFiles\SCHEMATIC1\tran.sim ] 


 ****     INITIAL TRANSIENT SOLUTION       TEMPERATURE =    0.000 DEG C


******************************************************************************



 NODE   VOLTAGE     NODE   VOLTAGE     NODE   VOLTAGE     NODE   VOLTAGE


(  OUT) 3.206E-06  (  VCC)   16.0000  ( -VCC)  -16.0000  (N09294)   11.5680     

(N09472)  -15.8490 (N09568)  -15.8490 (N09654)  -15.8490 (N09690)   10.2450     

(N09756)  -15.8490 (N09834)    6.0249 (N09900)  -15.8340 (N13610)   10.9210     

(N16519)   15.7430 (N17329)  -15.8340 (N17714)  -15.8490 (N18668)  -12.0610     

(N19094)  -15.8490 (X_U1.6)    1.5880 (X_U1.7)  -17.8820 (X_U1.8)  -17.8820     

(X_U1.9)    0.0000 (X_U2.6)    1.5828 (X_U2.7)  -17.8820 (X_U2.8)  -17.8820     

(X_U2.9)    0.0000 (X_U3.6)    1.5773 (X_U3.7)  -17.8820 (X_U3.8)  -17.8820     

(X_U3.9)    0.0000 (X_U4.6)    1.5432 (X_U4.7)  -17.8670 (X_U4.8)  -17.8670     

(X_U4.9)    0.0000 (X_U5.6)    -.0052 (X_U5.7)   16.7580 (X_U5.8)   16.7580     

(X_U5.9)    0.0000 (X_U1.10)   10.8740                   (X_U1.11)   15.9160    

(X_U1.12)   16.0000                   (X_U1.13)   10.9030                       

(X_U1.14)   10.8740                   (X_U1.53)   15.0000                       

(X_U1.54)  -15.0000                   (X_U1.90)  -40.6590                       

(X_U1.91)   40.0000                   (X_U1.92)  -40.0000                       

(X_U1.99)    0.0000                   (X_U2.10)   10.2270                       

(X_U2.11)   15.9160                   (X_U2.12)   16.0000                       

(X_U2.13)   10.2560                   (X_U2.14)   10.2270                       

(X_U2.53)   15.0000                   (X_U2.54)  -15.0000                       

(X_U2.90)  -40.6590                   (X_U2.91)   40.0000                       

(X_U2.92)  -40.0000                   (X_U2.99)    0.0000                       

(X_U3.10)    9.5510                   (X_U3.11)   15.9170                       

(X_U3.12)   16.0000                   (X_U3.13)    9.5801                       

(X_U3.14)    9.5510                   (X_U3.53)   15.0000                       

(X_U3.54)  -15.0000                   (X_U3.90)  -40.6590                       

(X_U3.91)   40.0000                   (X_U3.92)  -40.0000                       

(X_U3.99)    0.0000                   (X_U4.10)    5.3324                       

(X_U4.11)   15.9180                   (X_U4.12)   16.0000                       

(X_U4.13)    5.3610                   (X_U4.14)    5.3324                       

(X_U4.53)   15.0000                   (X_U4.54)  -15.0000                       

(X_U4.90)  -40.6620                   (X_U4.91)   40.0000                       

(X_U4.92)  -40.0000                   (X_U4.99)    0.0000                       

(X_U5.10)    -.6592                   (X_U5.11)   15.9620                       

(X_U5.12)   15.9620                   (X_U5.13)    -.6459                       

(X_U5.14)    -.6459                   (X_U5.53)   15.0000                       

(X_U5.54)    1.0000                   (X_U5.90)   20.3060                       

(X_U5.91)   40.0000                   (X_U5.92)  -40.0000                       

(X_U5.99)    8.0000                   




    VOLTAGE SOURCE CURRENTS
    NAME         CURRENT

    V_V2        -1.357E-01
    V_V1        -3.601E-02
    X_U5.vb     -5.224E-08
    X_U5.vc     -4.460E-04
    X_U5.ve      1.461E-11
    X_U5.vlim    2.031E-02
    X_U5.vlp    -1.969E-11
    X_U5.vln    -6.031E-11
    X_U4.vb      1.543E-05
    X_U4.vc      3.083E-11
    X_U4.ve     -2.080E-02
    X_U4.vlim   -4.066E-02
    X_U4.vlp    -8.066E-11
    X_U4.vln     1.427E-05
    X_U3.vb      1.577E-05
    X_U3.vc      3.085E-11
    X_U3.ve     -4.066E-02
    X_U3.vlim   -4.066E-02
    X_U3.vlp    -8.066E-11
    X_U3.vln     1.265E-05
    X_U2.vb      1.583E-05
    X_U2.vc      3.085E-11
    X_U2.ve     -4.066E-02
    X_U2.vlim   -4.066E-02
    X_U2.vlp    -8.066E-11
    X_U2.vln     1.271E-05
    X_U1.vb      1.588E-05
    X_U1.vc      3.085E-11
    X_U1.ve     -4.066E-02
    X_U1.vlim   -4.066E-02
    X_U1.vlp    -8.066E-11
    X_U1.vln     1.276E-05

    TOTAL POWER DISSIPATION  -1.45E+00  WATTS


**** 05/21/21 01:23:46 ****** PSpice 17.2.0 (March 2016) ****** ID# 0 ********

 ** Profile: "SCHEMATIC1-tran"  [ E:\An2_Sem2\Tehnici_CAD\Proiect\main-PSpiceFiles\SCHEMATIC1\tran.sim ] 


 ****     TEMPERATURE-ADJUSTED VALUES      TEMPERATURE =   27.000 DEG C


******************************************************************************




 **** DIODE MODEL PARAMETERS

                 LED_GALBEN      LED_ROSU     LED_ALBASTRU  

         IS        3.262E-06      4.106E-10      1.201E-16  
         VJ        1.000E+00      1.000E+00      1.000E+00  
        CJO        0.000E+00      0.000E+00      0.000E+00  
         RS        4.485E+00      9.429E+00      1.426E+01  
        IKF        0.000E+00      0.000E+00      0.000E+00  
         BV                   

                  LED_VERDE   LED_PORTOCALIU     X_U5.dy    

         IS        9.436E-10      2.746E-12      8.000E-16  
         VJ        1.000E+00      1.000E+00      1.000E+00  
        CJO        0.000E+00      0.000E+00      1.000E-11  
         RS        8.043E+00      6.312E-06      1.000E-03  
        IKF        0.000E+00      0.000E+00      0.000E+00  
         BV                   

                   X_U5.dx        X_U4.dy        X_U4.dx    

         IS        8.000E-16      8.000E-16      8.000E-16  
         VJ        1.000E+00      1.000E+00      1.000E+00  
        CJO        0.000E+00      1.000E-11      0.000E+00  
         RS        1.000E+00      1.000E-03      1.000E+00  
        IKF        0.000E+00      0.000E+00      0.000E+00  
         BV                   

                   X_U3.dy        X_U3.dx        X_U2.dy    

         IS        8.000E-16      8.000E-16      8.000E-16  
         VJ        1.000E+00      1.000E+00      1.000E+00  
        CJO        1.000E-11      0.000E+00      1.000E-11  
         RS        1.000E-03      1.000E+00      1.000E-03  
        IKF        0.000E+00      0.000E+00      0.000E+00  
         BV                   

                   X_U2.dx        X_U1.dy        X_U1.dx    

         IS        8.000E-16      8.000E-16      8.000E-16  
         VJ        1.000E+00      1.000E+00      1.000E+00  
        CJO        0.000E+00      1.000E-11      0.000E+00  
         RS        1.000E+00      1.000E-03      1.000E+00  
        IKF        0.000E+00      0.000E+00      0.000E+00  
         BV                   


 **** BJT MODEL PARAMETERS

                   X_U5.qx        X_U4.qx        X_U3.qx    

         BF        9.375E+01      9.375E+01      9.375E+01  
        ISE        0.000E+00      0.000E+00      0.000E+00  
        VJE        7.500E-01      7.500E-01      7.500E-01  
        CJE        0.000E+00      0.000E+00      0.000E+00  
         RE        0.000E+00      0.000E+00      0.000E+00  
         RB        0.000E+00      0.000E+00      0.000E+00  
         BR        1.000E+00      1.000E+00      1.000E+00  
        ISC        0.000E+00      0.000E+00      0.000E+00  
        VJC        7.500E-01      7.500E-01      7.500E-01  
        CJC        0.000E+00      0.000E+00      0.000E+00  
         RC        0.000E+00      0.000E+00      0.000E+00  
        RBM        0.000E+00      0.000E+00      0.000E+00  
         IS        8.000E-16      8.000E-16      8.000E-16  
        ISS        0.000E+00      0.000E+00      0.000E+00  
        VJS        7.500E-01      7.500E-01      7.500E-01  
        CJS        0.000E+00      0.000E+00      0.000E+00  
      GAMMA        1.000E-11      1.000E-11      1.000E-11  
        RCO        0.000E+00      0.000E+00      0.000E+00  
         VO        1.000E+01      1.000E+01      1.000E+01  

                   X_U2.qx        X_U1.qx                   

         BF        9.375E+01      9.375E+01  
        ISE        0.000E+00      0.000E+00  
        VJE        7.500E-01      7.500E-01  
        CJE        0.000E+00      0.000E+00  
         RE        0.000E+00      0.000E+00  
         RB        0.000E+00      0.000E+00  
         BR        1.000E+00      1.000E+00  
        ISC        0.000E+00      0.000E+00  
        VJC        7.500E-01      7.500E-01  
        CJC        0.000E+00      0.000E+00  
         RC        0.000E+00      0.000E+00  
        RBM        0.000E+00      0.000E+00  
         IS        8.000E-16      8.000E-16  
        ISS        0.000E+00      0.000E+00  
        VJS        7.500E-01      7.500E-01  
        CJS        0.000E+00      0.000E+00  
      GAMMA        1.000E-11      1.000E-11  
        RCO        0.000E+00      0.000E+00  
         VO        1.000E+01      1.000E+01  


 **** RESISTORS

                 R_R6 <R_R6>    R_R9 <R_R9>                 

          R        4.990E+03      1.000E+03  



**** 05/21/21 01:23:46 ****** PSpice 17.2.0 (March 2016) ****** ID# 0 ********

 ** Profile: "SCHEMATIC1-tran"  [ E:\An2_Sem2\Tehnici_CAD\Proiect\main-PSpiceFiles\SCHEMATIC1\tran.sim ] 


 ****     INITIAL TRANSIENT SOLUTION       TEMPERATURE =   27.000 DEG C


******************************************************************************



 NODE   VOLTAGE     NODE   VOLTAGE     NODE   VOLTAGE     NODE   VOLTAGE


(  OUT) 3.206E-06  (  VCC)   16.0000  ( -VCC)  -16.0000  (N09294)   11.5680     

(N09472)  -15.8160 (N09568)  -15.8160 (N09654)  -15.8160 (N09690)   10.2450     

(N09756)  -15.8160 (N09834)    6.0249 (N09900)  -15.7990 (N13610)   10.9210     

(N16519)   15.6990 (N17329)  -15.7990 (N17714)  -15.8160 (N18668)  -11.8030     

(N19094)  -15.8160 (X_U1.6)    1.5885 (X_U1.7)  -17.8470 (X_U1.8)  -17.8470     

(X_U1.9)    0.0000 (X_U2.6)    1.5832 (X_U2.7)  -17.8470 (X_U2.8)  -17.8470     

(X_U2.9)    0.0000 (X_U3.6)    1.5777 (X_U3.7)  -17.8470 (X_U3.8)  -17.8470     

(X_U3.9)    0.0000 (X_U4.6)    1.5436 (X_U4.7)  -17.8300 (X_U4.8)  -17.8300     

(X_U4.9)    0.0000 (X_U5.6)    -.0052 (X_U5.7)   16.7040 (X_U5.8)   16.7040     

(X_U5.9)    0.0000 (X_U1.10)   10.9250                   (X_U1.11)   15.9160    

(X_U1.12)   16.0000                   (X_U1.13)   10.9550                       

(X_U1.14)   10.9250                   (X_U1.53)   15.0000                       

(X_U1.54)  -15.0000                   (X_U1.90)  -40.6080                       

(X_U1.91)   40.0000                   (X_U1.92)  -40.0000                       

(X_U1.99)    0.0000                   (X_U2.10)   10.2780                       

(X_U2.11)   15.9160                   (X_U2.12)   16.0000                       

(X_U2.13)   10.3070                   (X_U2.14)   10.2780                       

(X_U2.53)   15.0000                   (X_U2.54)  -15.0000                       

(X_U2.90)  -40.6080                   (X_U2.91)   40.0000                       

(X_U2.92)  -40.0000                   (X_U2.99)    0.0000                       

(X_U3.10)    9.6023                   (X_U3.11)   15.9170                       

(X_U3.12)   16.0000                   (X_U3.13)    9.6315                       

(X_U3.14)    9.6023                   (X_U3.53)   15.0000                       

(X_U3.54)  -15.0000                   (X_U3.90)  -40.6070                       

(X_U3.91)   40.0000                   (X_U3.92)  -40.0000                       

(X_U3.99)    0.0000                   (X_U4.10)    5.3838                       

(X_U4.11)   15.9180                   (X_U4.12)   16.0000                       

(X_U4.13)    5.4124                   (X_U4.14)    5.3838                       

(X_U4.53)   15.0000                   (X_U4.54)  -15.0000                       

(X_U4.90)  -40.6110                   (X_U4.91)   40.0000                       

(X_U4.92)  -40.0000                   (X_U4.99)    0.0000                       

(X_U5.10)    -.6061                   (X_U5.11)   15.9620                       

(X_U5.12)   15.9620                   (X_U5.13)    -.5927                       

(X_U5.14)    -.5927                   (X_U5.53)   15.0000                       

(X_U5.54)    1.0000                   (X_U5.90)   20.0880                       

(X_U5.91)   40.0000                   (X_U5.92)  -40.0000                       

(X_U5.99)    8.0000                   




    VOLTAGE SOURCE CURRENTS
    NAME         CURRENT

    V_V2        -1.357E-01
    V_V1        -3.601E-02
    X_U5.vb     -5.189E-08
    X_U5.vc     -4.430E-04
    X_U5.ve      1.456E-11
    X_U5.vlim    2.009E-02
    X_U5.vlp    -1.991E-11
    X_U5.vln    -6.009E-11
    X_U4.vb      1.544E-05
    X_U4.vc      3.080E-11
    X_U4.ve     -2.097E-02
    X_U4.vlim   -4.061E-02
    X_U4.vlp    -8.061E-11
    X_U4.vln     1.426E-05
    X_U3.vb      1.578E-05
    X_U3.vc      3.082E-11
    X_U3.ve     -4.061E-02
    X_U3.vlim   -4.061E-02
    X_U3.vlp    -8.061E-11
    X_U3.vln     1.266E-05
    X_U2.vb      1.583E-05
    X_U2.vc      3.082E-11
    X_U2.ve     -4.061E-02
    X_U2.vlim   -4.061E-02
    X_U2.vlp    -8.061E-11
    X_U2.vln     1.272E-05
    X_U1.vb      1.588E-05
    X_U1.vc      3.082E-11
    X_U1.ve     -4.061E-02
    X_U1.vlim   -4.061E-02
    X_U1.vlp    -8.061E-11
    X_U1.vln     1.277E-05

    TOTAL POWER DISSIPATION  -1.45E+00  WATTS


**** 05/21/21 01:23:46 ****** PSpice 17.2.0 (March 2016) ****** ID# 0 ********

 ** Profile: "SCHEMATIC1-tran"  [ E:\An2_Sem2\Tehnici_CAD\Proiect\main-PSpiceFiles\SCHEMATIC1\tran.sim ] 


 ****     TEMPERATURE-ADJUSTED VALUES      TEMPERATURE =   50.000 DEG C


******************************************************************************




 **** DIODE MODEL PARAMETERS

                 LED_GALBEN      LED_ROSU     LED_ALBASTRU  

         IS        6.284E-06      1.016E-09      2.532E-16  
         VJ        9.787E-01      9.787E-01      9.787E-01  
        CJO        0.000E+00      0.000E+00      0.000E+00  
         RS        4.485E+00      9.429E+00      1.426E+01  
        IKF        0.000E+00      0.000E+00      0.000E+00  
         BV                   

                  LED_VERDE   LED_PORTOCALIU     X_U5.dy    

         IS        2.441E-09      9.619E-12      2.118E-14  
         VJ        9.787E-01      9.787E-01      9.787E-01  
        CJO        0.000E+00      0.000E+00      1.015E-11  
         RS        8.043E+00      6.312E-06      1.000E-03  
        IKF        0.000E+00      0.000E+00      0.000E+00  
         BV                   

                   X_U5.dx        X_U4.dy        X_U4.dx    

         IS        2.118E-14      2.118E-14      2.118E-14  
         VJ        9.787E-01      9.787E-01      9.787E-01  
        CJO        0.000E+00      1.015E-11      0.000E+00  
         RS        1.000E+00      1.000E-03      1.000E+00  
        IKF        0.000E+00      0.000E+00      0.000E+00  
         BV                   

                   X_U3.dy        X_U3.dx        X_U2.dy    

         IS        2.118E-14      2.118E-14      2.118E-14  
         VJ        9.787E-01      9.787E-01      9.787E-01  
        CJO        1.015E-11      0.000E+00      1.015E-11  
         RS        1.000E-03      1.000E+00      1.000E-03  
        IKF        0.000E+00      0.000E+00      0.000E+00  
         BV                   

                   X_U2.dx        X_U1.dy        X_U1.dx    

         IS        2.118E-14      2.118E-14      2.118E-14  
         VJ        9.787E-01      9.787E-01      9.787E-01  
        CJO        0.000E+00      1.015E-11      0.000E+00  
         RS        1.000E+00      1.000E-03      1.000E+00  
        IKF        0.000E+00      0.000E+00      0.000E+00  
         BV                   


 **** BJT MODEL PARAMETERS

                   X_U5.qx        X_U4.qx        X_U3.qx    

         BF        9.375E+01      9.375E+01      9.375E+01  
        ISE        0.000E+00      0.000E+00      0.000E+00  
        VJE        7.095E-01      7.095E-01      7.095E-01  
        CJE        0.000E+00      0.000E+00      0.000E+00  
         RE        0.000E+00      0.000E+00      0.000E+00  
         RB        0.000E+00      0.000E+00      0.000E+00  
         BR        1.000E+00      1.000E+00      1.000E+00  
        ISC        0.000E+00      0.000E+00      0.000E+00  
        VJC        7.095E-01      7.095E-01      7.095E-01  
        CJC        0.000E+00      0.000E+00      0.000E+00  
         RC        0.000E+00      0.000E+00      0.000E+00  
        RBM        0.000E+00      0.000E+00      0.000E+00  
         IS        2.118E-14      2.118E-14      2.118E-14  
        ISS        0.000E+00      0.000E+00      0.000E+00  
        VJS        7.095E-01      7.095E-01      7.095E-01  
        CJS        0.000E+00      0.000E+00      0.000E+00  
      GAMMA        1.000E-11      1.000E-11      1.000E-11  
        RCO        0.000E+00      0.000E+00      0.000E+00  
         VO        1.000E+01      1.000E+01      1.000E+01  

                   X_U2.qx        X_U1.qx                   

         BF        9.375E+01      9.375E+01  
        ISE        0.000E+00      0.000E+00  
        VJE        7.095E-01      7.095E-01  
        CJE        0.000E+00      0.000E+00  
         RE        0.000E+00      0.000E+00  
         RB        0.000E+00      0.000E+00  
         BR        1.000E+00      1.000E+00  
        ISC        0.000E+00      0.000E+00  
        VJC        7.095E-01      7.095E-01  
        CJC        0.000E+00      0.000E+00  
         RC        0.000E+00      0.000E+00  
        RBM        0.000E+00      0.000E+00  
         IS        2.118E-14      2.118E-14  
        ISS        0.000E+00      0.000E+00  
        VJS        7.095E-01      7.095E-01  
        CJS        0.000E+00      0.000E+00  
      GAMMA        1.000E-11      1.000E-11  
        RCO        0.000E+00      0.000E+00  
         VO        1.000E+01      1.000E+01  


 **** RESISTORS

                 R_R6 <R_R6>    R_R9 <R_R9>                 

          R        4.990E+03      1.000E+03  



**** 05/21/21 01:23:46 ****** PSpice 17.2.0 (March 2016) ****** ID# 0 ********

 ** Profile: "SCHEMATIC1-tran"  [ E:\An2_Sem2\Tehnici_CAD\Proiect\main-PSpiceFiles\SCHEMATIC1\tran.sim ] 


 ****     INITIAL TRANSIENT SOLUTION       TEMPERATURE =   50.000 DEG C


******************************************************************************



 NODE   VOLTAGE     NODE   VOLTAGE     NODE   VOLTAGE     NODE   VOLTAGE


(  OUT) 3.206E-06  (  VCC)   16.0000  ( -VCC)  -16.0000  (N09294)   11.5680     

(N09472)  -15.7880 (N09568)  -15.7880 (N09654)  -15.7880 (N09690)   10.2450     

(N09756)  -15.7880 (N09834)    6.0249 (N09900)  -15.7690 (N13610)   10.9210     

(N16519)   15.6620 (N17329)  -15.7690 (N17714)  -15.7880 (N18668)  -11.5840     

(N19094)  -15.7880 (X_U1.6)    1.5888 (X_U1.7)  -17.8160 (X_U1.8)  -17.8160     

(X_U1.9)    0.0000 (X_U2.6)    1.5836 (X_U2.7)  -17.8160 (X_U2.8)  -17.8160     

(X_U2.9)    0.0000 (X_U3.6)    1.5781 (X_U3.7)  -17.8160 (X_U3.8)  -17.8160     

(X_U3.9)    0.0000 (X_U4.6)    1.5439 (X_U4.7)  -17.7980 (X_U4.8)  -17.7980     

(X_U4.9)    0.0000 (X_U5.6)    -.0052 (X_U5.7)   16.6570 (X_U5.8)   16.6570     

(X_U5.9)    0.0000 (X_U1.10)   10.9690                   (X_U1.11)   15.9160    

(X_U1.12)   16.0000                   (X_U1.13)   10.9990                       

(X_U1.14)   10.9690                   (X_U1.53)   15.0000                       

(X_U1.54)  -15.0000                   (X_U1.90)  -40.5630                       

(X_U1.91)   40.0000                   (X_U1.92)  -40.0000                       

(X_U1.99)    0.0000                   (X_U2.10)   10.3220                       

(X_U2.11)   15.9160                   (X_U2.12)   16.0000                       

(X_U2.13)   10.3520                   (X_U2.14)   10.3220                       

(X_U2.53)   15.0000                   (X_U2.54)  -15.0000                       

(X_U2.90)  -40.5630                   (X_U2.91)   40.0000                       

(X_U2.92)  -40.0000                   (X_U2.99)    0.0000                       

(X_U3.10)    9.6465                   (X_U3.11)   15.9170                       

(X_U3.12)   16.0000                   (X_U3.13)    9.6757                       

(X_U3.14)    9.6465                   (X_U3.53)   15.0000                       

(X_U3.54)  -15.0000                   (X_U3.90)  -40.5630                       

(X_U3.91)   40.0000                   (X_U3.92)  -40.0000                       

(X_U3.99)    0.0000                   (X_U4.10)    5.4281                       

(X_U4.11)   15.9180                   (X_U4.12)   16.0000                       

(X_U4.13)    5.4567                   (X_U4.14)    5.4281                       

(X_U4.53)   15.0000                   (X_U4.54)  -15.0000                       

(X_U4.90)  -40.5660                   (X_U4.91)   40.0000                       

(X_U4.92)  -40.0000                   (X_U4.99)    0.0000                       

(X_U5.10)    -.5603                   (X_U5.11)   15.9620                       

(X_U5.12)   15.9620                   (X_U5.13)    -.5469                       

(X_U5.14)    -.5469                   (X_U5.53)   15.0000                       

(X_U5.54)    1.0000                   (X_U5.90)   19.9020                       

(X_U5.91)   40.0000                   (X_U5.92)  -40.0000                       

(X_U5.99)    8.0000                   




    VOLTAGE SOURCE CURRENTS
    NAME         CURRENT

    V_V2        -1.357E-01
    V_V1        -3.601E-02
    X_U5.vb     -5.159E-08
    X_U5.vc     -4.405E-04
    X_U5.ve      1.455E-11
    X_U5.vlim    1.990E-02
    X_U5.vlp    -2.012E-11
    X_U5.vln    -5.993E-11
    X_U4.vb      1.544E-05
    X_U4.vc      3.079E-11
    X_U4.ve     -2.111E-02
    X_U4.vlim   -4.057E-02
    X_U4.vlp    -8.059E-11
    X_U4.vln     1.425E-05
    X_U3.vb      1.578E-05
    X_U3.vc      3.081E-11
    X_U3.ve     -4.056E-02
    X_U3.vlim   -4.056E-02
    X_U3.vlp    -8.058E-11
    X_U3.vln     1.267E-05
    X_U2.vb      1.584E-05
    X_U2.vc      3.081E-11
    X_U2.ve     -4.056E-02
    X_U2.vlim   -4.056E-02
    X_U2.vlp    -8.058E-11
    X_U2.vln     1.272E-05
    X_U1.vb      1.589E-05
    X_U1.vc      3.081E-11
    X_U1.ve     -4.056E-02
    X_U1.vlim   -4.056E-02
    X_U1.vlp    -8.058E-11
    X_U1.vln     1.278E-05

    TOTAL POWER DISSIPATION  -1.45E+00  WATTS


**** 05/21/21 01:23:46 ****** PSpice 17.2.0 (March 2016) ****** ID# 0 ********

 ** Profile: "SCHEMATIC1-tran"  [ E:\An2_Sem2\Tehnici_CAD\Proiect\main-PSpiceFiles\SCHEMATIC1\tran.sim ] 


 ****     TEMPERATURE-ADJUSTED VALUES      TEMPERATURE =   75.000 DEG C


******************************************************************************




 **** DIODE MODEL PARAMETERS

                 LED_GALBEN      LED_ROSU     LED_ALBASTRU  

         IS        1.166E-05      2.387E-09      5.115E-16  
         VJ        9.547E-01      9.547E-01      9.547E-01  
        CJO        0.000E+00      0.000E+00      0.000E+00  
         RS        4.485E+00      9.429E+00      1.426E+01  
        IKF        0.000E+00      0.000E+00      0.000E+00  
         BV                   

                  LED_VERDE   LED_PORTOCALIU     X_U5.dy    

         IS        5.975E-09      3.133E-11      4.635E-13  
         VJ        9.547E-01      9.547E-01      9.547E-01  
        CJO        0.000E+00      0.000E+00      1.032E-11  
         RS        8.043E+00      6.312E-06      1.000E-03  
        IKF        0.000E+00      0.000E+00      0.000E+00  
         BV                   

                   X_U5.dx        X_U4.dy        X_U4.dx    

         IS        4.635E-13      4.635E-13      4.635E-13  
         VJ        9.547E-01      9.547E-01      9.547E-01  
        CJO        0.000E+00      1.032E-11      0.000E+00  
         RS        1.000E+00      1.000E-03      1.000E+00  
        IKF        0.000E+00      0.000E+00      0.000E+00  
         BV                   

                   X_U3.dy        X_U3.dx        X_U2.dy    

         IS        4.635E-13      4.635E-13      4.635E-13  
         VJ        9.547E-01      9.547E-01      9.547E-01  
        CJO        1.032E-11      0.000E+00      1.032E-11  
         RS        1.000E-03      1.000E+00      1.000E-03  
        IKF        0.000E+00      0.000E+00      0.000E+00  
         BV                   

                   X_U2.dx        X_U1.dy        X_U1.dx    

         IS        4.635E-13      4.635E-13      4.635E-13  
         VJ        9.547E-01      9.547E-01      9.547E-01  
        CJO        0.000E+00      1.032E-11      0.000E+00  
         RS        1.000E+00      1.000E-03      1.000E+00  
        IKF        0.000E+00      0.000E+00      0.000E+00  
         BV                   


 **** BJT MODEL PARAMETERS

                   X_U5.qx        X_U4.qx        X_U3.qx    

         BF        9.375E+01      9.375E+01      9.375E+01  
        ISE        0.000E+00      0.000E+00      0.000E+00  
        VJE        6.647E-01      6.647E-01      6.647E-01  
        CJE        0.000E+00      0.000E+00      0.000E+00  
         RE        0.000E+00      0.000E+00      0.000E+00  
         RB        0.000E+00      0.000E+00      0.000E+00  
         BR        1.000E+00      1.000E+00      1.000E+00  
        ISC        0.000E+00      0.000E+00      0.000E+00  
        VJC        6.647E-01      6.647E-01      6.647E-01  
        CJC        0.000E+00      0.000E+00      0.000E+00  
         RC        0.000E+00      0.000E+00      0.000E+00  
        RBM        0.000E+00      0.000E+00      0.000E+00  
         IS        4.635E-13      4.635E-13      4.635E-13  
        ISS        0.000E+00      0.000E+00      0.000E+00  
        VJS        6.647E-01      6.647E-01      6.647E-01  
        CJS        0.000E+00      0.000E+00      0.000E+00  
      GAMMA        1.000E-11      1.000E-11      1.000E-11  
        RCO        0.000E+00      0.000E+00      0.000E+00  
         VO        1.000E+01      1.000E+01      1.000E+01  

                   X_U2.qx        X_U1.qx                   

         BF        9.375E+01      9.375E+01  
        ISE        0.000E+00      0.000E+00  
        VJE        6.647E-01      6.647E-01  
        CJE        0.000E+00      0.000E+00  
         RE        0.000E+00      0.000E+00  
         RB        0.000E+00      0.000E+00  
         BR        1.000E+00      1.000E+00  
        ISC        0.000E+00      0.000E+00  
        VJC        6.647E-01      6.647E-01  
        CJC        0.000E+00      0.000E+00  
         RC        0.000E+00      0.000E+00  
        RBM        0.000E+00      0.000E+00  
         IS        4.635E-13      4.635E-13  
        ISS        0.000E+00      0.000E+00  
        VJS        6.647E-01      6.647E-01  
        CJS        0.000E+00      0.000E+00  
      GAMMA        1.000E-11      1.000E-11  
        RCO        0.000E+00      0.000E+00  
         VO        1.000E+01      1.000E+01  


 **** RESISTORS

                 R_R6 <R_R6>    R_R9 <R_R9>                 

          R        4.990E+03      1.000E+03  



**** 05/21/21 01:23:46 ****** PSpice 17.2.0 (March 2016) ****** ID# 0 ********

 ** Profile: "SCHEMATIC1-tran"  [ E:\An2_Sem2\Tehnici_CAD\Proiect\main-PSpiceFiles\SCHEMATIC1\tran.sim ] 


 ****     INITIAL TRANSIENT SOLUTION       TEMPERATURE =   75.000 DEG C


******************************************************************************



 NODE   VOLTAGE     NODE   VOLTAGE     NODE   VOLTAGE     NODE   VOLTAGE


(  OUT) 3.206E-06  (  VCC)   16.0000  ( -VCC)  -16.0000  (N09294)   11.5680     

(N09472)  -15.7560 (N09568)  -15.7560 (N09654)  -15.7560 (N09690)   10.2450     

(N09756)  -15.7560 (N09834)    6.0249 (N09900)  -15.7370 (N13610)   10.9210     

(N16519)   15.6200 (N17329)  -15.7370 (N17714)  -15.7560 (N18668)  -11.3460     

(N19094)  -15.7560 (X_U1.6)    1.5892 (X_U1.7)  -17.7820 (X_U1.8)  -17.7820     

(X_U1.9)    0.0000 (X_U2.6)    1.5840 (X_U2.7)  -17.7820 (X_U2.8)  -17.7820     

(X_U2.9)    0.0000 (X_U3.6)    1.5785 (X_U3.7)  -17.7820 (X_U3.8)  -17.7820     

(X_U3.9)    0.0000 (X_U4.6)    1.5443 (X_U4.7)  -17.7620 (X_U4.8)  -17.7620     

(X_U4.9)    0.0000 (X_U5.6)    -.0051 (X_U5.7)   16.6050 (X_U5.8)   16.6050     

(X_U5.9)    0.0000 (X_U1.10)   11.0180                   (X_U1.11)   15.9160    

(X_U1.12)   16.0000                   (X_U1.13)   11.0470                       

(X_U1.14)   11.0180                   (X_U1.53)   15.0000                       

(X_U1.54)  -15.0000                   (X_U1.90)  -40.5140                       

(X_U1.91)   40.0000                   (X_U1.92)  -40.0000                       

(X_U1.99)    0.0000                   (X_U2.10)   10.3710                       

(X_U2.11)   15.9160                   (X_U2.12)   16.0000                       

(X_U2.13)   10.4000                   (X_U2.14)   10.3710                       

(X_U2.53)   15.0000                   (X_U2.54)  -15.0000                       

(X_U2.90)  -40.5140                   (X_U2.91)   40.0000                       

(X_U2.92)  -40.0000                   (X_U2.99)    0.0000                       

(X_U3.10)    9.6951                   (X_U3.11)   15.9170                       

(X_U3.12)   16.0000                   (X_U3.13)    9.7243                       

(X_U3.14)    9.6951                   (X_U3.53)   15.0000                       

(X_U3.54)  -15.0000                   (X_U3.90)  -40.5140                       

(X_U3.91)   40.0000                   (X_U3.92)  -40.0000                       

(X_U3.99)    0.0000                   (X_U4.10)    5.4767                       

(X_U4.11)   15.9180                   (X_U4.12)   16.0000                       

(X_U4.13)    5.5053                   (X_U4.14)    5.4767                       

(X_U4.53)   15.0000                   (X_U4.54)  -15.0000                       

(X_U4.90)  -40.5170                   (X_U4.91)   40.0000                       

(X_U4.92)  -40.0000                   (X_U4.99)    0.0000                       

(X_U5.10)    -.5100                   (X_U5.11)   15.9620                       

(X_U5.12)   15.9620                   (X_U5.13)    -.4967                       

(X_U5.14)    -.4967                   (X_U5.53)   15.0000                       

(X_U5.54)    1.0000                   (X_U5.90)   19.6990                       

(X_U5.91)   40.0000                   (X_U5.92)  -40.0000                       

(X_U5.99)    8.0000                   




    VOLTAGE SOURCE CURRENTS
    NAME         CURRENT

    V_V2        -1.357E-01
    V_V1        -3.602E-02
    X_U5.vb     -5.126E-08
    X_U5.vc     -4.377E-04
    X_U5.ve      1.495E-11
    X_U5.vlim    1.970E-02
    X_U5.vlp    -2.076E-11
    X_U5.vln    -6.016E-11
    X_U4.vb      1.544E-05
    X_U4.vc      3.120E-11
    X_U4.ve     -2.126E-02
    X_U4.vlim   -4.052E-02
    X_U4.vlp    -8.098E-11
    X_U4.vln     1.424E-05
    X_U3.vb      1.579E-05
    X_U3.vc      3.122E-11
    X_U3.ve     -4.051E-02
    X_U3.vlim   -4.051E-02
    X_U3.vlp    -8.098E-11
    X_U3.vln     1.267E-05
    X_U2.vb      1.584E-05
    X_U2.vc      3.122E-11
    X_U2.ve     -4.051E-02
    X_U2.vlim   -4.051E-02
    X_U2.vlp    -8.098E-11
    X_U2.vln     1.273E-05
    X_U1.vb      1.589E-05
    X_U1.vc      3.122E-11
    X_U1.ve     -4.051E-02
    X_U1.vlim   -4.051E-02
    X_U1.vlp    -8.098E-11
    X_U1.vln     1.279E-05

    TOTAL POWER DISSIPATION  -1.45E+00  WATTS



          JOB CONCLUDED

**** 05/21/21 01:23:46 ****** PSpice 17.2.0 (March 2016) ****** ID# 0 ********

 ** Profile: "SCHEMATIC1-tran"  [ E:\An2_Sem2\Tehnici_CAD\Proiect\main-PSpiceFiles\SCHEMATIC1\tran.sim ] 


 ****     JOB STATISTICS SUMMARY


******************************************************************************



  Total job time (using Solver 1)   =         .39
