
**** 05/20/21 21:06:02 ****** PSpice 17.2.0 (March 2016) ****** ID# 0 ********

 ** Profile: "SCHEMATIC1-vdc"  [ E:\An2_Sem2\Tehnici_CAD\Proiect\dim-PSpiceFiles\SCHEMATIC1\vdc.sim ] 


 ****     CIRCUIT DESCRIPTION


******************************************************************************




** Creating circuit file "vdc.cir" 
** WARNING: THIS AUTOMATICALLY GENERATED FILE MAY BE OVERWRITTEN BY SUBSEQUENT SIMULATIONS

*Libraries: 
* Profile Libraries :
* Local Libraries :
* From [PSPICE NETLIST] section of C:\SPB_Data\cdssetup\OrCAD_PSpice\17.2.0\PSpice.ini file:
.lib "nom.lib" 

*Analysis directives: 
.DC LIN V_V1 0.5 10 0.5 
.OPTIONS ADVCONV
.PROBE64 V(alias(*)) I(alias(*)) W(alias(*)) D(alias(*)) NOISE(alias(*)) 
.INC "..\SCHEMATIC1.net" 



**** INCLUDING SCHEMATIC1.net ****
* source DIM
D_D18         N20767 0 LED_ALBASTRU 
V_V1         N20767 0 1

**** RESUMING vdc.cir ****
.END

ERROR(ORPSIM-15113): Model LED_ALBASTRU used by D_D18 is undefined
